  0
SECTION
  2
ENTITIES
999
DXF created from EnergyPlus
999
Program Version,EnergyPlus, Version 25.1.0-68a4a7c774, YMD=2025.10.23 16:39
999
Polygon Action,TRIANGULATE3DFACE
999
Color Scheme,Default
999
Text - True North
  0
TEXT
  8
1
  6
Continuous
 62
  3
 10
      -11.03446
 20
        2.89160
 30
        0.10000
 40
 .25
  1
True North
 41
 0.0
  7
MONOTXT
210
0.0
220
0.0
230
1.0
999
Text - Building Title
  0
TEXT
  8
1
  6
Continuous
 62
  3
 10
      -14.03446
 20
       -1.10840
 30
        0.10000
 40
 .4
  1
Building - Building
 41
 0.0
  7
MONOTXT
210
0.0
220
0.0
230
1.0
999
North Arrow Stem
  0
3DFACE
  8
1
 62
  3
 10
      -10.03446
 20
        2.89160
 30
        0.10000
 11
      -10.03446
 21
        2.89160
 31
        0.00000
 12
      -10.03446
 22
       -0.10840
 32
        0.00000
 13
      -10.03446
 23
       -0.10840
 33
        0.10000
999
North Arrow Head 1
  0
3DFACE
  8
1
 62
  3
 10
      -10.03446
 20
        2.89160
 30
        0.10000
 11
      -10.03446
 21
        2.89160
 31
        0.00000
 12
      -10.53446
 22
        2.02557
 32
        0.00000
 13
      -10.53446
 23
        2.02557
 33
        0.10000
999
North Arrow Head 2
  0
3DFACE
  8
1
 62
  3
 10
      -10.03446
 20
        2.89160
 30
        0.10000
 11
      -10.03446
 21
        2.89160
 31
        0.00000
 12
       -9.53446
 22
        2.02557
 32
        0.00000
 13
       -9.53446
 23
        2.02557
 33
        0.10000
999
North Arrow Side 1
  0
3DFACE
  8
1
 62
  3
 10
      -10.53446
 20
        4.39160
 30
        0.10000
 11
      -10.53446
 21
        4.39160
 31
        0.00000
 12
      -10.53446
 22
        3.39160
 32
        0.00000
 13
      -10.53446
 23
        3.39160
 33
        0.10000
999
North Arrow Side 2
  0
3DFACE
  8
1
 62
  3
 10
      -10.53446
 20
        4.39160
 30
        0.10000
 11
      -10.53446
 21
        4.39160
 31
        0.00000
 12
       -9.53446
 22
        3.39160
 32
        0.00000
 13
       -9.53446
 23
        3.39160
 33
        0.10000
999
North Arrow Side 3
  0
3DFACE
  8
1
 62
  3
 10
       -9.53446
 20
        4.39160
 30
        0.10000
 11
       -9.53446
 21
        4.39160
 31
        0.00000
 12
       -9.53446
 22
        3.39160
 32
        0.00000
 13
       -9.53446
 23
        3.39160
 33
        0.10000
999
Zone Names
999
Zone=1:BLOCK1_LIVINGROOM
999
Zone=2:BLOCK1_BATHROOM
999
Zone=3:BLOCK1_CLOSET
999
BLOCK1:LIVINGROOM:BLOCK1:LIVINGROOM_PARTITION_2_0_0
  0
3DFACE
  8
BLOCK1_LIVINGROOM
 62
 43
 10
        2.36054
 20
        2.81260
 30
        4.36900
 11
        2.36054
 21
        2.81260
 31
        0.00000
 12
        2.36054
 22
        0.85860
 32
        0.00000
 13
        2.36054
 23
        0.85860
 33
        4.36900
999
BLOCK1:LIVINGROOM:BLOCK1:LIVINGROOM_PARTITION_3_0_0
  0
3DFACE
  8
BLOCK1_LIVINGROOM
 62
 43
 10
        2.36054
 20
        0.85860
 30
        4.36900
 11
        2.36054
 21
        0.85860
 31
        0.00000
 12
        1.79654
 22
        0.85860
 32
        0.00000
 13
        1.79654
 23
        0.85860
 33
        4.36900
999
BLOCK1:LIVINGROOM:BLOCK1:LIVINGROOM_PARTITION_4_0_0
  0
3DFACE
  8
BLOCK1_LIVINGROOM
 62
 43
 10
        1.79654
 20
        0.85860
 30
        4.36900
 11
        1.79654
 21
        0.85860
 31
        0.00000
 12
        1.79654
 22
       -0.10840
 32
        0.00000
 13
        1.79654
 23
       -0.10840
 33
        4.36900
999
BLOCK1:LIVINGROOM:BLOCK1:LIVINGROOM_WALL_5_0_0
  0
3DFACE
  8
BLOCK1_LIVINGROOM
 62
 43
 10
        1.79654
 20
       -0.10840
 30
        4.36900
 11
        1.79654
 21
       -0.10840
 31
        0.00000
 12
        3.74564
 22
       -0.10840
 32
        0.00000
 13
        3.74564
 23
       -0.10840
 33
        4.36900
999
BLOCK1:LIVINGROOM:BLOCK1:LIVINGROOM_WALL_5_0_0_0_0_0_DOOR
  0
3DFACE
  8
BLOCK1_LIVINGROOM
 62
 45
 10
        2.72601
 20
       -0.10840
 30
        2.12762
 11
        2.72601
 21
       -0.10840
 31
        0.00200
 12
        3.64364
 22
       -0.10840
 32
        0.00200
 13
        3.64364
 23
       -0.10840
 33
        2.12762
999
BLOCK1:LIVINGROOM:BLOCK1:LIVINGROOM_PARTITION_6_0_0
  0
3DFACE
  8
BLOCK1_LIVINGROOM
 62
 43
 10
        3.74564
 20
       -0.10840
 30
        4.36900
 11
        3.74564
 21
       -0.10840
 31
        0.00000
 12
        3.74564
 22
        3.90460
 32
        0.00000
 13
        3.74564
 23
        3.90460
 33
        4.36900
999
BLOCK1:LIVINGROOM:BLOCK1:LIVINGROOM_PARTITION_7_0_0
  0
3DFACE
  8
BLOCK1_LIVINGROOM
 62
 43
 10
        3.74564
 20
        3.90460
 30
        4.36900
 11
        3.74564
 21
        3.90460
 31
        0.00000
 12
        4.61364
 22
        3.90460
 32
        0.00000
 13
        4.61364
 23
        3.90460
 33
        4.36900
999
BLOCK1:LIVINGROOM:BLOCK1:LIVINGROOM_WALL_8_0_0
  0
3DFACE
  8
BLOCK1_LIVINGROOM
 62
 43
 10
        4.61364
 20
        3.90460
 30
        4.36900
 11
        4.61364
 21
        3.90460
 31
        0.00000
 12
        4.61364
 22
        8.50470
 32
        0.00000
 13
        4.61364
 23
        8.50470
 33
        4.36900
999
BLOCK1:LIVINGROOM:BLOCK1:LIVINGROOM_WALL_9_0_0
  0
3DFACE
  8
BLOCK1_LIVINGROOM
 62
 43
 10
        4.61364
 20
        8.50470
 30
        4.36900
 11
        4.61364
 21
        8.50470
 31
        0.00000
 12
       -0.03446
 22
        8.50470
 32
        0.00000
 13
       -0.03446
 23
        8.50470
 33
        4.36900
999
BLOCK1:LIVINGROOM:BLOCK1:LIVINGROOM_WALL_9_0_0_0_0_0_WIN
  0
3DFACE
  8
BLOCK1_LIVINGROOM
 62
143
 10
        3.30564
 20
        8.50470
 30
        2.21900
 11
        3.30564
 21
        8.50470
 31
        0.80000
 12
        0.64264
 22
        8.50470
 32
        0.80000
 13
        0.64264
 23
        8.50470
 33
        2.21900
999
BLOCK1:LIVINGROOM:BLOCK1:LIVINGROOM_WALL_10_0_0
  0
3DFACE
  8
BLOCK1_LIVINGROOM
 62
 43
 10
       -0.03446
 20
        8.50470
 30
        4.36900
 11
       -0.03446
 21
        8.50470
 31
        0.00000
 12
       -0.03446
 22
        2.81260
 32
        0.00000
 13
       -0.03446
 23
        2.81260
 33
        4.36900
999
BLOCK1:LIVINGROOM:BLOCK1:LIVINGROOM_PARTITION_11_0_0
  0
3DFACE
  8
BLOCK1_LIVINGROOM
 62
 43
 10
       -0.03446
 20
        2.81260
 30
        4.36900
 11
       -0.03446
 21
        2.81260
 31
        0.00000
 12
        2.36054
 22
        2.81260
 32
        0.00000
 13
        2.36054
 23
        2.81260
 33
        4.36900
999
BLOCK1:LIVINGROOM:BLOCK1:LIVINGROOM_GROUNDFLOOR_0_0_0
  0
3DFACE
  8
BLOCK1_LIVINGROOM
 62
  8
 10
       -0.03446
 20
        2.81260
 30
        0.00000
 11
       -0.03446
 21
        8.50470
 31
        0.00000
 12
        2.36054
 22
        8.50470
 32
        0.00000
 13
        2.36054
 23
        2.81260
 33
        0.00000
999
BLOCK1:LIVINGROOM:BLOCK1:LIVINGROOM_GROUNDFLOOR_0_0_1
  0
3DFACE
  8
BLOCK1_LIVINGROOM
 62
  8
 10
        1.79654
 20
       -0.10840
 30
        0.00000
 11
        1.79654
 21
        0.85860
 31
        0.00000
 12
        2.36054
 22
        0.85860
 32
        0.00000
 13
        2.36054
 23
       -0.10840
 33
        0.00000
999
BLOCK1:LIVINGROOM:BLOCK1:LIVINGROOM_GROUNDFLOOR_0_0_2
  0
3DFACE
  8
BLOCK1_LIVINGROOM
 62
  8
 10
        3.74564
 20
        3.90460
 30
        0.00000
 11
        3.74564
 21
        8.50470
 31
        0.00000
 12
        4.61364
 22
        8.50470
 32
        0.00000
 13
        4.61364
 23
        3.90460
 33
        0.00000
999
BLOCK1:LIVINGROOM:BLOCK1:LIVINGROOM_GROUNDFLOOR_0_0_3
  0
3DFACE
  8
BLOCK1_LIVINGROOM
 62
  8
 10
        2.36054
 20
       -0.10840
 30
        0.00000
 11
        2.36054
 21
        8.50470
 31
        0.00000
 12
        3.74564
 22
        8.50470
 32
        0.00000
 13
        3.74564
 23
       -0.10840
 33
        0.00000
999
BLOCK1:LIVINGROOM:BLOCK1:LIVINGROOM_ROOF_1_0_0
  0
3DFACE
  8
BLOCK1_LIVINGROOM
 62
 15
 10
        2.36054
 20
        2.81260
 30
        4.36900
 11
        2.36054
 21
        3.90460
 31
        4.36900
 12
       -0.03446
 22
        3.90460
 32
        4.36900
 13
       -0.03446
 23
        2.81260
 33
        4.36900
999
BLOCK1:LIVINGROOM:BLOCK1:LIVINGROOM_ROOF_1_0_1
  0
3DFACE
  8
BLOCK1_LIVINGROOM
 62
 15
 10
        3.74564
 20
        0.85860
 30
        4.36900
 11
        3.74564
 21
        3.90460
 31
        4.36900
 12
        2.36054
 22
        3.90460
 32
        4.36900
 13
        2.36054
 23
        0.85860
 33
        4.36900
999
BLOCK1:LIVINGROOM:BLOCK1:LIVINGROOM_ROOF_1_0_2
  0
3DFACE
  8
BLOCK1_LIVINGROOM
 62
 15
 10
        3.74564
 20
       -0.10840
 30
        4.36900
 11
        3.74564
 21
        0.85860
 31
        4.36900
 12
        1.79654
 22
        0.85860
 32
        4.36900
 13
        1.79654
 23
       -0.10840
 33
        4.36900
999
BLOCK1:LIVINGROOM:BLOCK1:LIVINGROOM_ROOF_1_0_3
  0
3DFACE
  8
BLOCK1_LIVINGROOM
 62
 15
 10
        4.61364
 20
        3.90460
 30
        4.36900
 11
        4.61364
 21
        8.50470
 31
        4.36900
 12
       -0.03446
 22
        8.50470
 32
        4.36900
 13
       -0.03446
 23
        3.90460
 33
        4.36900
999
BLOCK1:BATHROOM:BLOCK1:BATHROOM_PARTITION_6_0_10000
  0
3DFACE
  8
BLOCK1_BATHROOM
 62
 43
 10
        2.36054
 20
        0.85860
 30
        4.36900
 11
        2.36054
 21
        0.85860
 31
        0.00000
 12
        2.36054
 22
        2.81260
 32
        0.00000
 13
        2.36054
 23
        2.81260
 33
        4.36900
999
BLOCK1:BATHROOM:BLOCK1:BATHROOM_PARTITION_5_0_10001
  0
3DFACE
  8
BLOCK1_BATHROOM
 62
 43
 10
        1.79654
 20
        0.85860
 30
        4.36900
 11
        1.79654
 21
        0.85860
 31
        0.00000
 12
        2.36054
 22
        0.85860
 32
        0.00000
 13
        2.36054
 23
        0.85860
 33
        4.36900
999
BLOCK1:BATHROOM:BLOCK1:BATHROOM_PARTITION_4_0_10002
  0
3DFACE
  8
BLOCK1_BATHROOM
 62
 43
 10
        1.79654
 20
       -0.10840
 30
        4.36900
 11
        1.79654
 21
       -0.10840
 31
        0.00000
 12
        1.79654
 22
        0.85860
 32
        0.00000
 13
        1.79654
 23
        0.85860
 33
        4.36900
999
BLOCK1:BATHROOM:BLOCK1:BATHROOM_PARTITION_7_0_10005
  0
3DFACE
  8
BLOCK1_BATHROOM
 62
 43
 10
        2.36054
 20
        2.81260
 30
        4.36900
 11
        2.36054
 21
        2.81260
 31
        0.00000
 12
       -0.03446
 22
        2.81260
 32
        0.00000
 13
       -0.03446
 23
        2.81260
 33
        4.36900
999
BLOCK1:BATHROOM:BLOCK1:BATHROOM_WALL_2_0_0
  0
3DFACE
  8
BLOCK1_BATHROOM
 62
 43
 10
       -0.03446
 20
        2.81260
 30
        4.36900
 11
       -0.03446
 21
        2.81260
 31
        0.00000
 12
       -0.03446
 22
       -0.10840
 32
        0.00000
 13
       -0.03446
 23
       -0.10840
 33
        4.36900
999
BLOCK1:BATHROOM:BLOCK1:BATHROOM_WALL_3_0_0
  0
3DFACE
  8
BLOCK1_BATHROOM
 62
 43
 10
       -0.03446
 20
       -0.10840
 30
        4.36900
 11
       -0.03446
 21
       -0.10840
 31
        0.00000
 12
        1.79654
 22
       -0.10840
 32
        0.00000
 13
        1.79654
 23
       -0.10840
 33
        4.36900
999
BLOCK1:BATHROOM:BLOCK1:BATHROOM_GROUNDFLOOR_0_0_0
  0
3DFACE
  8
BLOCK1_BATHROOM
 62
  8
 10
        1.79654
 20
        0.85860
 30
        0.00000
 11
        1.79654
 21
        2.81260
 31
        0.00000
 12
        2.36054
 22
        2.81260
 32
        0.00000
 13
        2.36054
 23
        0.85860
 33
        0.00000
999
BLOCK1:BATHROOM:BLOCK1:BATHROOM_GROUNDFLOOR_0_0_1
  0
3DFACE
  8
BLOCK1_BATHROOM
 62
  8
 10
       -0.03446
 20
       -0.10840
 30
        0.00000
 11
       -0.03446
 21
        2.81260
 31
        0.00000
 12
        1.79654
 22
        2.81260
 32
        0.00000
 13
        1.79654
 23
       -0.10840
 33
        0.00000
999
BLOCK1:BATHROOM:BLOCK1:BATHROOM_ROOF_1_0_0
  0
3DFACE
  8
BLOCK1_BATHROOM
 62
 15
 10
        1.79654
 20
       -0.10840
 30
        4.36900
 11
        1.79654
 21
        0.85860
 31
        4.36900
 12
       -0.03446
 22
        0.85860
 32
        4.36900
 13
       -0.03446
 23
       -0.10840
 33
        4.36900
999
BLOCK1:BATHROOM:BLOCK1:BATHROOM_ROOF_1_0_1
  0
3DFACE
  8
BLOCK1_BATHROOM
 62
 15
 10
        2.36054
 20
        0.85860
 30
        4.36900
 11
        2.36054
 21
        2.81260
 31
        4.36900
 12
       -0.03446
 22
        2.81260
 32
        4.36900
 13
       -0.03446
 23
        0.85860
 33
        4.36900
999
BLOCK1:CLOSET:BLOCK1:CLOSET_PARTITION_2_0_10003
  0
3DFACE
  8
BLOCK1_CLOSET
 62
 43
 10
        3.74564
 20
        3.90460
 30
        4.36900
 11
        3.74564
 21
        3.90460
 31
        0.00000
 12
        3.74564
 22
       -0.10840
 32
        0.00000
 13
        3.74564
 23
       -0.10840
 33
        4.36900
999
BLOCK1:CLOSET:BLOCK1:CLOSET_PARTITION_5_0_10004
  0
3DFACE
  8
BLOCK1_CLOSET
 62
 43
 10
        4.61364
 20
        3.90460
 30
        4.36900
 11
        4.61364
 21
        3.90460
 31
        0.00000
 12
        3.74564
 22
        3.90460
 32
        0.00000
 13
        3.74564
 23
        3.90460
 33
        4.36900
999
BLOCK1:CLOSET:BLOCK1:CLOSET_WALL_3_0_0
  0
3DFACE
  8
BLOCK1_CLOSET
 62
 43
 10
        3.74564
 20
       -0.10840
 30
        4.36900
 11
        3.74564
 21
       -0.10840
 31
        0.00000
 12
        4.61364
 22
       -0.10840
 32
        0.00000
 13
        4.61364
 23
       -0.10840
 33
        4.36900
999
BLOCK1:CLOSET:BLOCK1:CLOSET_WALL_4_0_0
  0
3DFACE
  8
BLOCK1_CLOSET
 62
 43
 10
        4.61364
 20
       -0.10840
 30
        4.36900
 11
        4.61364
 21
       -0.10840
 31
        0.00000
 12
        4.61364
 22
        3.90460
 32
        0.00000
 13
        4.61364
 23
        3.90460
 33
        4.36900
999
BLOCK1:CLOSET:BLOCK1:CLOSET_GROUNDFLOOR_0_0_0
  0
3DFACE
  8
BLOCK1_CLOSET
 62
  8
 10
        3.74564
 20
       -0.10840
 30
        0.00000
 11
        3.74564
 21
        3.90460
 31
        0.00000
 12
        4.61364
 22
        3.90460
 32
        0.00000
 13
        4.61364
 23
       -0.10840
 33
        0.00000
999
BLOCK1:CLOSET:BLOCK1:CLOSET_ROOF_1_0_0
  0
3DFACE
  8
BLOCK1_CLOSET
 62
 15
 10
        4.61364
 20
       -0.10840
 30
        4.36900
 11
        4.61364
 21
        3.90460
 31
        4.36900
 12
        3.74564
 22
        3.90460
 32
        4.36900
 13
        3.74564
 23
       -0.10840
 33
        4.36900
  0
ENDSEC
  0
EOF
