  0
SECTION
  2
ENTITIES
999
DXF created from EnergyPlus
999
Program Version,EnergyPlus, Version 25.1.0-68a4a7c774, YMD=2025.10.23 16:39
999
Polygon Action,TRIANGULATE3DFACE
999
Color Scheme,Default
999
Text - True North
  0
TEXT
  8
1
  6
Continuous
 62
  3
 10
      -19.50470
 20
        2.96554
 30
        0.10000
 40
 .25
  1
True North
 41
 0.0
  7
MONOTXT
210
0.0
220
0.0
230
1.0
999
Text - Building Title
  0
TEXT
  8
1
  6
Continuous
 62
  3
 10
      -22.50470
 20
       -1.03446
 30
        0.10000
 40
 .4
  1
Building - Building
 41
 0.0
  7
MONOTXT
210
0.0
220
0.0
230
1.0
999
North Arrow Stem
  0
3DFACE
  8
1
 62
  3
 10
      -18.50470
 20
        2.96554
 30
        0.10000
 11
      -18.50470
 21
        2.96554
 31
        0.00000
 12
      -18.50470
 22
       -0.03446
 32
        0.00000
 13
      -18.50470
 23
       -0.03446
 33
        0.10000
999
North Arrow Head 1
  0
3DFACE
  8
1
 62
  3
 10
      -18.50470
 20
        2.96554
 30
        0.10000
 11
      -18.50470
 21
        2.96554
 31
        0.00000
 12
      -19.00470
 22
        2.09952
 32
        0.00000
 13
      -19.00470
 23
        2.09952
 33
        0.10000
999
North Arrow Head 2
  0
3DFACE
  8
1
 62
  3
 10
      -18.50470
 20
        2.96554
 30
        0.10000
 11
      -18.50470
 21
        2.96554
 31
        0.00000
 12
      -18.00470
 22
        2.09952
 32
        0.00000
 13
      -18.00470
 23
        2.09952
 33
        0.10000
999
North Arrow Side 1
  0
3DFACE
  8
1
 62
  3
 10
      -19.00470
 20
        4.46554
 30
        0.10000
 11
      -19.00470
 21
        4.46554
 31
        0.00000
 12
      -19.00470
 22
        3.46554
 32
        0.00000
 13
      -19.00470
 23
        3.46554
 33
        0.10000
999
North Arrow Side 2
  0
3DFACE
  8
1
 62
  3
 10
      -19.00470
 20
        4.46554
 30
        0.10000
 11
      -19.00470
 21
        4.46554
 31
        0.00000
 12
      -18.00470
 22
        3.46554
 32
        0.00000
 13
      -18.00470
 23
        3.46554
 33
        0.10000
999
North Arrow Side 3
  0
3DFACE
  8
1
 62
  3
 10
      -18.00470
 20
        4.46554
 30
        0.10000
 11
      -18.00470
 21
        4.46554
 31
        0.00000
 12
      -18.00470
 22
        3.46554
 32
        0.00000
 13
      -18.00470
 23
        3.46554
 33
        0.10000
999
Zone Names
999
Zone=1:BLOCK1_LIVINGROOM
999
Zone=2:BLOCK1_BATHROOM
999
Zone=3:BLOCK1_CLOSET
999
BLOCK1:LIVINGROOM:BLOCK1:LIVINGROOM_PARTITION_2_0_0
  0
3DFACE
  8
BLOCK1_LIVINGROOM
 62
 43
 10
       -2.81260
 20
        2.36054
 30
        4.36900
 11
       -2.81260
 21
        2.36054
 31
        0.00000
 12
       -0.85860
 22
        2.36054
 32
        0.00000
 13
       -0.85860
 23
        2.36054
 33
        4.36900
999
BLOCK1:LIVINGROOM:BLOCK1:LIVINGROOM_PARTITION_3_0_0
  0
3DFACE
  8
BLOCK1_LIVINGROOM
 62
 43
 10
       -0.85860
 20
        2.36054
 30
        4.36900
 11
       -0.85860
 21
        2.36054
 31
        0.00000
 12
       -0.85860
 22
        1.79654
 32
        0.00000
 13
       -0.85860
 23
        1.79654
 33
        4.36900
999
BLOCK1:LIVINGROOM:BLOCK1:LIVINGROOM_PARTITION_4_0_0
  0
3DFACE
  8
BLOCK1_LIVINGROOM
 62
 43
 10
       -0.85860
 20
        1.79654
 30
        4.36900
 11
       -0.85860
 21
        1.79654
 31
        0.00000
 12
        0.10840
 22
        1.79654
 32
        0.00000
 13
        0.10840
 23
        1.79654
 33
        4.36900
999
BLOCK1:LIVINGROOM:BLOCK1:LIVINGROOM_WALL_5_0_0
  0
3DFACE
  8
BLOCK1_LIVINGROOM
 62
 43
 10
        0.10840
 20
        1.79654
 30
        4.36900
 11
        0.10840
 21
        1.79654
 31
        0.00000
 12
        0.10840
 22
        3.74564
 32
        0.00000
 13
        0.10840
 23
        3.74564
 33
        4.36900
999
BLOCK1:LIVINGROOM:BLOCK1:LIVINGROOM_WALL_5_0_0_0_0_0_DOOR
  0
3DFACE
  8
BLOCK1_LIVINGROOM
 62
 45
 10
        0.10840
 20
        2.72601
 30
        2.12762
 11
        0.10840
 21
        2.72601
 31
        0.00200
 12
        0.10840
 22
        3.64364
 32
        0.00200
 13
        0.10840
 23
        3.64364
 33
        2.12762
999
BLOCK1:LIVINGROOM:BLOCK1:LIVINGROOM_PARTITION_6_0_0
  0
3DFACE
  8
BLOCK1_LIVINGROOM
 62
 43
 10
        0.10840
 20
        3.74564
 30
        4.36900
 11
        0.10840
 21
        3.74564
 31
        0.00000
 12
       -3.90460
 22
        3.74564
 32
        0.00000
 13
       -3.90460
 23
        3.74564
 33
        4.36900
999
BLOCK1:LIVINGROOM:BLOCK1:LIVINGROOM_PARTITION_7_0_0
  0
3DFACE
  8
BLOCK1_LIVINGROOM
 62
 43
 10
       -3.90460
 20
        3.74564
 30
        4.36900
 11
       -3.90460
 21
        3.74564
 31
        0.00000
 12
       -3.90460
 22
        4.61364
 32
        0.00000
 13
       -3.90460
 23
        4.61364
 33
        4.36900
999
BLOCK1:LIVINGROOM:BLOCK1:LIVINGROOM_WALL_8_0_0
  0
3DFACE
  8
BLOCK1_LIVINGROOM
 62
 43
 10
       -3.90460
 20
        4.61364
 30
        4.36900
 11
       -3.90460
 21
        4.61364
 31
        0.00000
 12
       -8.50470
 22
        4.61364
 32
        0.00000
 13
       -8.50470
 23
        4.61364
 33
        4.36900
999
BLOCK1:LIVINGROOM:BLOCK1:LIVINGROOM_WALL_9_0_0
  0
3DFACE
  8
BLOCK1_LIVINGROOM
 62
 43
 10
       -8.50470
 20
        4.61364
 30
        4.36900
 11
       -8.50470
 21
        4.61364
 31
        0.00000
 12
       -8.50470
 22
       -0.03446
 32
        0.00000
 13
       -8.50470
 23
       -0.03446
 33
        4.36900
999
BLOCK1:LIVINGROOM:BLOCK1:LIVINGROOM_WALL_9_0_0_0_0_0_WIN
  0
3DFACE
  8
BLOCK1_LIVINGROOM
 62
143
 10
       -8.50470
 20
        3.30564
 30
        2.21900
 11
       -8.50470
 21
        3.30564
 31
        0.80000
 12
       -8.50470
 22
        0.64264
 32
        0.80000
 13
       -8.50470
 23
        0.64264
 33
        2.21900
999
BLOCK1:LIVINGROOM:BLOCK1:LIVINGROOM_WALL_10_0_0
  0
3DFACE
  8
BLOCK1_LIVINGROOM
 62
 43
 10
       -8.50470
 20
       -0.03446
 30
        4.36900
 11
       -8.50470
 21
       -0.03446
 31
        0.00000
 12
       -2.81260
 22
       -0.03446
 32
        0.00000
 13
       -2.81260
 23
       -0.03446
 33
        4.36900
999
BLOCK1:LIVINGROOM:BLOCK1:LIVINGROOM_PARTITION_11_0_0
  0
3DFACE
  8
BLOCK1_LIVINGROOM
 62
 43
 10
       -2.81260
 20
       -0.03446
 30
        4.36900
 11
       -2.81260
 21
       -0.03446
 31
        0.00000
 12
       -2.81260
 22
        2.36054
 32
        0.00000
 13
       -2.81260
 23
        2.36054
 33
        4.36900
999
BLOCK1:LIVINGROOM:BLOCK1:LIVINGROOM_GROUNDFLOOR_0_0_0
  0
3DFACE
  8
BLOCK1_LIVINGROOM
 62
  8
 10
       -2.81260
 20
       -0.03446
 30
        0.00000
 11
       -8.50470
 21
       -0.03446
 31
        0.00000
 12
       -8.50470
 22
        2.36054
 32
        0.00000
 13
       -2.81260
 23
        2.36054
 33
        0.00000
999
BLOCK1:LIVINGROOM:BLOCK1:LIVINGROOM_GROUNDFLOOR_0_0_1
  0
3DFACE
  8
BLOCK1_LIVINGROOM
 62
  8
 10
        0.10840
 20
        1.79654
 30
        0.00000
 11
       -0.85860
 21
        1.79654
 31
        0.00000
 12
       -0.85860
 22
        2.36054
 32
        0.00000
 13
        0.10840
 23
        2.36054
 33
        0.00000
999
BLOCK1:LIVINGROOM:BLOCK1:LIVINGROOM_GROUNDFLOOR_0_0_2
  0
3DFACE
  8
BLOCK1_LIVINGROOM
 62
  8
 10
       -3.90460
 20
        3.74564
 30
        0.00000
 11
       -8.50470
 21
        3.74564
 31
        0.00000
 12
       -8.50470
 22
        4.61364
 32
        0.00000
 13
       -3.90460
 23
        4.61364
 33
        0.00000
999
BLOCK1:LIVINGROOM:BLOCK1:LIVINGROOM_GROUNDFLOOR_0_0_3
  0
3DFACE
  8
BLOCK1_LIVINGROOM
 62
  8
 10
        0.10840
 20
        2.36054
 30
        0.00000
 11
       -8.50470
 21
        2.36054
 31
        0.00000
 12
       -8.50470
 22
        3.74564
 32
        0.00000
 13
        0.10840
 23
        3.74564
 33
        0.00000
999
BLOCK1:LIVINGROOM:BLOCK1:LIVINGROOM_ROOF_1_0_0
  0
3DFACE
  8
BLOCK1_LIVINGROOM
 62
 15
 10
       -2.81260
 20
        2.36054
 30
        4.36900
 11
       -3.90460
 21
        2.36054
 31
        4.36900
 12
       -3.90460
 22
       -0.03446
 32
        4.36900
 13
       -2.81260
 23
       -0.03446
 33
        4.36900
999
BLOCK1:LIVINGROOM:BLOCK1:LIVINGROOM_ROOF_1_0_1
  0
3DFACE
  8
BLOCK1_LIVINGROOM
 62
 15
 10
       -0.85860
 20
        3.74564
 30
        4.36900
 11
       -3.90460
 21
        3.74564
 31
        4.36900
 12
       -3.90460
 22
        2.36054
 32
        4.36900
 13
       -0.85860
 23
        2.36054
 33
        4.36900
999
BLOCK1:LIVINGROOM:BLOCK1:LIVINGROOM_ROOF_1_0_2
  0
3DFACE
  8
BLOCK1_LIVINGROOM
 62
 15
 10
        0.10840
 20
        3.74564
 30
        4.36900
 11
       -0.85860
 21
        3.74564
 31
        4.36900
 12
       -0.85860
 22
        1.79654
 32
        4.36900
 13
        0.10840
 23
        1.79654
 33
        4.36900
999
BLOCK1:LIVINGROOM:BLOCK1:LIVINGROOM_ROOF_1_0_3
  0
3DFACE
  8
BLOCK1_LIVINGROOM
 62
 15
 10
       -3.90460
 20
        4.61364
 30
        4.36900
 11
       -8.50470
 21
        4.61364
 31
        4.36900
 12
       -8.50470
 22
       -0.03446
 32
        4.36900
 13
       -3.90460
 23
       -0.03446
 33
        4.36900
999
BLOCK1:BATHROOM:BLOCK1:BATHROOM_PARTITION_6_0_10000
  0
3DFACE
  8
BLOCK1_BATHROOM
 62
 43
 10
       -0.85860
 20
        2.36054
 30
        4.36900
 11
       -0.85860
 21
        2.36054
 31
        0.00000
 12
       -2.81260
 22
        2.36054
 32
        0.00000
 13
       -2.81260
 23
        2.36054
 33
        4.36900
999
BLOCK1:BATHROOM:BLOCK1:BATHROOM_PARTITION_5_0_10001
  0
3DFACE
  8
BLOCK1_BATHROOM
 62
 43
 10
       -0.85860
 20
        1.79654
 30
        4.36900
 11
       -0.85860
 21
        1.79654
 31
        0.00000
 12
       -0.85860
 22
        2.36054
 32
        0.00000
 13
       -0.85860
 23
        2.36054
 33
        4.36900
999
BLOCK1:BATHROOM:BLOCK1:BATHROOM_PARTITION_4_0_10002
  0
3DFACE
  8
BLOCK1_BATHROOM
 62
 43
 10
        0.10840
 20
        1.79654
 30
        4.36900
 11
        0.10840
 21
        1.79654
 31
        0.00000
 12
       -0.85860
 22
        1.79654
 32
        0.00000
 13
       -0.85860
 23
        1.79654
 33
        4.36900
999
BLOCK1:BATHROOM:BLOCK1:BATHROOM_PARTITION_7_0_10005
  0
3DFACE
  8
BLOCK1_BATHROOM
 62
 43
 10
       -2.81260
 20
        2.36054
 30
        4.36900
 11
       -2.81260
 21
        2.36054
 31
        0.00000
 12
       -2.81260
 22
       -0.03446
 32
        0.00000
 13
       -2.81260
 23
       -0.03446
 33
        4.36900
999
BLOCK1:BATHROOM:BLOCK1:BATHROOM_WALL_2_0_0
  0
3DFACE
  8
BLOCK1_BATHROOM
 62
 43
 10
       -2.81260
 20
       -0.03446
 30
        4.36900
 11
       -2.81260
 21
       -0.03446
 31
        0.00000
 12
        0.10840
 22
       -0.03446
 32
        0.00000
 13
        0.10840
 23
       -0.03446
 33
        4.36900
999
BLOCK1:BATHROOM:BLOCK1:BATHROOM_WALL_3_0_0
  0
3DFACE
  8
BLOCK1_BATHROOM
 62
 43
 10
        0.10840
 20
       -0.03446
 30
        4.36900
 11
        0.10840
 21
       -0.03446
 31
        0.00000
 12
        0.10840
 22
        1.79654
 32
        0.00000
 13
        0.10840
 23
        1.79654
 33
        4.36900
999
BLOCK1:BATHROOM:BLOCK1:BATHROOM_GROUNDFLOOR_0_0_0
  0
3DFACE
  8
BLOCK1_BATHROOM
 62
  8
 10
       -0.85860
 20
        1.79654
 30
        0.00000
 11
       -2.81260
 21
        1.79654
 31
        0.00000
 12
       -2.81260
 22
        2.36054
 32
        0.00000
 13
       -0.85860
 23
        2.36054
 33
        0.00000
999
BLOCK1:BATHROOM:BLOCK1:BATHROOM_GROUNDFLOOR_0_0_1
  0
3DFACE
  8
BLOCK1_BATHROOM
 62
  8
 10
        0.10840
 20
       -0.03446
 30
        0.00000
 11
       -2.81260
 21
       -0.03446
 31
        0.00000
 12
       -2.81260
 22
        1.79654
 32
        0.00000
 13
        0.10840
 23
        1.79654
 33
        0.00000
999
BLOCK1:BATHROOM:BLOCK1:BATHROOM_ROOF_1_0_0
  0
3DFACE
  8
BLOCK1_BATHROOM
 62
 15
 10
        0.10840
 20
        1.79654
 30
        4.36900
 11
       -0.85860
 21
        1.79654
 31
        4.36900
 12
       -0.85860
 22
       -0.03446
 32
        4.36900
 13
        0.10840
 23
       -0.03446
 33
        4.36900
999
BLOCK1:BATHROOM:BLOCK1:BATHROOM_ROOF_1_0_1
  0
3DFACE
  8
BLOCK1_BATHROOM
 62
 15
 10
       -0.85860
 20
        2.36054
 30
        4.36900
 11
       -2.81260
 21
        2.36054
 31
        4.36900
 12
       -2.81260
 22
       -0.03446
 32
        4.36900
 13
       -0.85860
 23
       -0.03446
 33
        4.36900
999
BLOCK1:CLOSET:BLOCK1:CLOSET_PARTITION_2_0_10003
  0
3DFACE
  8
BLOCK1_CLOSET
 62
 43
 10
       -3.90460
 20
        3.74564
 30
        4.36900
 11
       -3.90460
 21
        3.74564
 31
        0.00000
 12
        0.10840
 22
        3.74564
 32
        0.00000
 13
        0.10840
 23
        3.74564
 33
        4.36900
999
BLOCK1:CLOSET:BLOCK1:CLOSET_PARTITION_5_0_10004
  0
3DFACE
  8
BLOCK1_CLOSET
 62
 43
 10
       -3.90460
 20
        4.61364
 30
        4.36900
 11
       -3.90460
 21
        4.61364
 31
        0.00000
 12
       -3.90460
 22
        3.74564
 32
        0.00000
 13
       -3.90460
 23
        3.74564
 33
        4.36900
999
BLOCK1:CLOSET:BLOCK1:CLOSET_WALL_3_0_0
  0
3DFACE
  8
BLOCK1_CLOSET
 62
 43
 10
        0.10840
 20
        3.74564
 30
        4.36900
 11
        0.10840
 21
        3.74564
 31
        0.00000
 12
        0.10840
 22
        4.61364
 32
        0.00000
 13
        0.10840
 23
        4.61364
 33
        4.36900
999
BLOCK1:CLOSET:BLOCK1:CLOSET_WALL_4_0_0
  0
3DFACE
  8
BLOCK1_CLOSET
 62
 43
 10
        0.10840
 20
        4.61364
 30
        4.36900
 11
        0.10840
 21
        4.61364
 31
        0.00000
 12
       -3.90460
 22
        4.61364
 32
        0.00000
 13
       -3.90460
 23
        4.61364
 33
        4.36900
999
BLOCK1:CLOSET:BLOCK1:CLOSET_GROUNDFLOOR_0_0_0
  0
3DFACE
  8
BLOCK1_CLOSET
 62
  8
 10
        0.10840
 20
        3.74564
 30
        0.00000
 11
       -3.90460
 21
        3.74564
 31
        0.00000
 12
       -3.90460
 22
        4.61364
 32
        0.00000
 13
        0.10840
 23
        4.61364
 33
        0.00000
999
BLOCK1:CLOSET:BLOCK1:CLOSET_ROOF_1_0_0
  0
3DFACE
  8
BLOCK1_CLOSET
 62
 15
 10
        0.10840
 20
        4.61364
 30
        4.36900
 11
       -3.90460
 21
        4.61364
 31
        4.36900
 12
       -3.90460
 22
        3.74564
 32
        4.36900
 13
        0.10840
 23
        3.74564
 33
        4.36900
  0
ENDSEC
  0
EOF
