Program Version,EnergyPlus, Version 25.1.0-68a4a7c774, YMD=2025.10.23 16:39
! <Version>, Version ID
 Version, 25.1
! <Timesteps per Hour>, #TimeSteps, Minutes per TimeStep {minutes}
 Timesteps per Hour,  2, 30
! <System Convergence Limits>, Minimum System TimeStep {minutes}, Max HVAC Iterations, Minimum Plant Iterations, Maximum Plant Iterations
 System Convergence Limits, 1, 25, 2, 8
! <Simulation Control>, Do Zone Sizing, Do System Sizing, Do Plant Sizing, Do Design Days, Do Weather Simulation, Do HVAC Sizing Simulation
 Simulation Control, Yes, Yes, No, No, Yes, No
! <Performance Precision Tradeoffs>, Use Coil Direct Simulation, Zone Radiant Exchange Algorithm, Override Mode, Number of Timestep In Hour, Force Euler Method, Minimum Number of Warmup Days, Force Suppress All Begin Environment Resets, Minimum System Timestep, MaxZoneTempDiff, MaxAllowedDelTemp
 Performance Precision Tradeoffs, No, ScriptF, Normal, 2, No, 1, No, 1.0, 0.300, 2.0000E-003
! <Output Reporting Tolerances>, Tolerance for Time Heating Setpoint Not Met, Tolerance for Zone Cooling Setpoint Not Met Time
 Output Reporting Tolerances, 1.110, 1.110, 
! <Site:GroundTemperature:BuildingSurface>,Jan{C},Feb{C},Mar{C},Apr{C},May{C},Jun{C},Jul{C},Aug{C},Sep{C},Oct{C},Nov{C},Dec{C}
 Site:GroundTemperature:BuildingSurface,  18.00,  18.00,  18.00,  18.00,  18.00,  18.00,  18.00,  18.00,  18.00,  18.00,  18.00,  18.00
! <Site:GroundTemperature:FCfactorMethod>,Jan{C},Feb{C},Mar{C},Apr{C},May{C},Jun{C},Jul{C},Aug{C},Sep{C},Oct{C},Nov{C},Dec{C}
 Site:GroundTemperature:FCfactorMethod,  14.23,  13.98,  14.43,  15.14,  16.99,  18.42,  19.38,  19.68,  19.18,  18.07,  16.58,  15.21
! <Site:GroundTemperature:Shallow>,Jan{C},Feb{C},Mar{C},Apr{C},May{C},Jun{C},Jul{C},Aug{C},Sep{C},Oct{C},Nov{C},Dec{C}
 Site:GroundTemperature:Shallow,  14.00,  14.00,  14.00,  14.00,  14.00,  14.00,  14.00,  14.00,  14.00,  14.00,  14.00,  14.00
! <Site:GroundTemperature:Deep>,Jan{C},Feb{C},Mar{C},Apr{C},May{C},Jun{C},Jul{C},Aug{C},Sep{C},Oct{C},Nov{C},Dec{C}
 Site:GroundTemperature:Deep,  14.00,  14.00,  14.00,  14.00,  14.00,  14.00,  14.00,  14.00,  14.00,  14.00,  14.00,  14.00
! <Site:GroundReflectance>,Jan{dimensionless},Feb{dimensionless},Mar{dimensionless},Apr{dimensionless},May{dimensionless},Jun{dimensionless},Jul{dimensionless},Aug{dimensionless},Sep{dimensionless},Oct{dimensionless},Nov{dimensionless},Dec{dimensionless}
 Site:GroundReflectance,  0.20,  0.20,  0.20,  0.20,  0.20,  0.20,  0.20,  0.20,  0.20,  0.20,  0.20,  0.20
! <Site:GroundReflectance:SnowModifier>, Normal, Daylighting {dimensionless}
 Site:GroundReflectance:SnowModifier,   2.000,   2.000
! <Site:GroundReflectance:Snow>,Jan{dimensionless},Feb{dimensionless},Mar{dimensionless},Apr{dimensionless},May{dimensionless},Jun{dimensionless},Jul{dimensionless},Aug{dimensionless},Sep{dimensionless},Oct{dimensionless},Nov{dimensionless},Dec{dimensionless}
 Site:GroundReflectance:Snow,  0.40,  0.40,  0.40,  0.40,  0.40,  0.40,  0.40,  0.40,  0.40,  0.40,  0.40,  0.40
! <Site:GroundReflectance:Snow:Daylighting>,Jan{dimensionless},Feb{dimensionless},Mar{dimensionless},Apr{dimensionless},May{dimensionless},Jun{dimensionless},Jul{dimensionless},Aug{dimensionless},Sep{dimensionless},Oct{dimensionless},Nov{dimensionless},Dec{dimensionless}
 Site:GroundReflectance:Snow:Daylighting,  0.40,  0.40,  0.40,  0.40,  0.40,  0.40,  0.40,  0.40,  0.40,  0.40,  0.40,  0.40
! <Environment:Weather Station>,Wind Sensor Height Above Ground {m},Wind Speed Profile Exponent {},Wind Speed Profile Boundary Layer Thickness {m},Air Temperature Sensor Height Above Ground {m},Wind Speed Modifier Coefficient-Internal,Temperature Modifier Coefficient-Internal
Environment:Weather Station,10.000,0.140,270.000,1.500,1.586,9.750E-003
! <Site:Location>, Location Name, Latitude {N+/S- Deg}, Longitude {E+/W- Deg},  Time Zone Number {GMT+/-}, Elevation {m},  Standard Pressure at Elevation {Pa}, Standard RhoAir at Elevation
Site:Location,Denver Centennial  Golden   Nr CO USA TMY3 WMO#=724666,39.74,-105.18,-7.00,1829.00,81198,0.9651
! <Site Water Mains Temperature Information>,Calculation Method{},Water Mains Temperature Schedule Name{},Annual Average Outdoor Air Temperature{C},Maximum Difference In Monthly Average Outdoor Air Temperatures{deltaC},Fixed Default Water Mains Temperature{C}
Site Water Mains Temperature Information,FixedDefault,NA,NA,NA,10.0
! <Building Information>, Building Name,North Axis {deg},Terrain,  Loads Convergence Tolerance Value,Temperature Convergence Tolerance Value,  Solar Distribution,Maximum Number of Warmup Days,Minimum Number of Warmup Days
 Building Information,Building,0.000,Suburbs,4.00000E-002,0.40000,FullExterior,25,6
! <Inside Convection Algorithm>, Algorithm {Simple | TARP | CeilingDiffuser | AdaptiveConvectionAlgorithm}
Inside Convection Algorithm,TARP
! <Outside Convection Algorithm>, Algorithm {SimpleCombined | TARP | MoWitt | DOE-2 | AdaptiveConvectionAlgorithm}
Outside Convection Algorithm,DOE-2
! <Sky Radiance Distribution>, Value {Anisotropic}
Sky Radiance Distribution,Anisotropic
! <Zone Air Solution Algorithm>, Algorithm {ThirdOrderBackwardDifference | AnalyticalSolution | EulerMethod}, Space Heat Balance Sizing, Space Heat Balance Simulation
 Zone Air Solution Algorithm, ThirdOrderBackwardDifference, No, No
! <Zone Air Carbon Dioxide Balance Simulation>, Simulation {Yes/No}, Carbon Dioxide Concentration
 Zone Air Carbon Dioxide Balance Simulation, No,N/A
! <Zone Air Generic Contaminant Balance Simulation>, Simulation {Yes/No}, Generic Contaminant Concentration
 Zone Air Generic Contaminant Balance Simulation, No,N/A
! <Zone Air Mass Flow Balance Simulation>, Enforce Mass Balance, Adjust Zone Mixing and Return {AdjustMixingOnly | AdjustReturnOnly | AdjustMixingThenReturn | AdjustReturnThenMixing | None}, Adjust Zone Infiltration {AddInfiltration | AdjustInfiltration | None}, Infiltration Zones {MixingSourceZonesOnly | AllZones}
 Zone Air Mass Flow Balance Simulation, No,N/A,N/A,N/A
! <HVACSystemRootFindingAlgorithm>, Value {RegulaFalsi | Bisection | BisectionThenRegulaFalsi | RegulaFalsiThenBisection}
 HVACSystemRootFindingAlgorithm, RegulaFalsi
! <Environment:Site Atmospheric Variation>,Wind Speed Profile Exponent {},Wind Speed Profile Boundary Layer Thickness {m},Air Temperature Gradient Coefficient {K/m}
Environment:Site Atmospheric Variation,0.220,370.000,6.500000E-003
! <Shadowing/Sun Position Calculations Annual Simulations>, Shading Calculation Method, Shading Calculation Update Frequency Method, Shading Calculation Update Frequency {days}, Maximum Figures in Shadow Overlap Calculations {}, Polygon Clipping Algorithm, Pixel Counting Resolution, Sky Diffuse Modeling Algorithm, Output External Shading Calculation Results, Disable Self-Shading Within Shading Zone Groups, Disable Self-Shading From Shading Zone Groups to Other Zones
Shadowing/Sun Position Calculations Annual Simulations,PolygonClipping,Periodic,20,15000,SutherlandHodgman,512,SimpleSkyDiffuseModeling,No,No,No
! <Surface Geometry>,Starting Corner,Vertex Input Direction,Coordinate System,Daylight Reference Point Coordinate System,Rectangular (Simple) Surface Coordinate System
 Surface Geometry,LowerLeftCorner,Counterclockwise,RelativeCoordinateSystem,RelativeCoordinateSystem,RelativeToZoneOrigin
! <Surface Heat Transfer Algorithm>, Value {CTF - ConductionTransferFunction | EMPD - MoisturePenetrationDepthConductionTransferFunction | CondFD - ConductionFiniteDifference | HAMT - CombinedHeatAndMoistureFiniteElement} - Description,Inside Surface Max Temperature Limit{C}, Surface Convection Coefficient Lower Limit {W/m2-K}, Surface Convection Coefficient Upper Limit {W/m2-K}
Surface Heat Transfer Algorithm, CTF - ConductionTransferFunction,2000,1.00E-008,1000.0
! <Shading Summary>, Number of Fixed Detached Shades, Number of Building Detached Shades, Number of Attached Shades
 Shading Summary,0,0,0
! <Zone Summary>, Number of Zones, Number of Zone Surfaces, Number of SubSurfaces
 Zone Summary,3,36,2
! <Zone Information>,Zone Name,North Axis {deg},Origin X-Coordinate {m},Origin Y-Coordinate {m},Origin Z-Coordinate {m},Centroid X-Coordinate {m},Centroid Y-Coordinate {m},Centroid Z-Coordinate {m},Type,Zone Multiplier,Zone List Multiplier,Minimum X {m},Maximum X {m},Minimum Y {m},Maximum Y {m},Minimum Z {m},Maximum Z {m},Ceiling Height {m},Volume {m3},Zone Inside Convection Algorithm {Simple-Detailed-CeilingDiffuser-TrombeWall},Zone Outside Convection Algorithm {Simple-Detailed-Tarp-MoWitt-DOE-2-BLAST}, Floor Area {m2},Exterior Gross Wall Area {m2},Exterior Net Wall Area {m2},Exterior Window Area {m2}, Number of Surfaces, Number of SubSurfaces, Number of Shading SubSurfaces,  Part of Total Building Area
 Zone Information, BLOCK1:LIVINGROOM,0.0,0.00,0.00,0.00,-2.37,-4.63,2.18,1,1,1,-4.61,3.45E-002,-8.50,0.11,0.00,4.37,4.37,101.85,TARP,DOE-2,23.31,73.79,67.73,3.78,18,2,0,Yes
 Zone Information, BLOCK1:BATHROOM,0.0,0.00,0.00,0.00,-1.11,-1.41,2.18,1,1,1,-2.36,3.45E-002,-2.81,0.11,0.00,4.37,4.37,19.05,TARP,DOE-2,4.36,20.76,20.76,0.00,10,0,0,Yes
 Zone Information, BLOCK1:CLOSET,0.0,0.00,0.00,0.00,-4.18,-1.90,2.18,1,1,1,-4.61,-3.75,-3.90,0.11,0.00,4.37,4.37,6.32,TARP,DOE-2,1.45,21.33,21.33,0.00,6,0,0,Yes
! <Solar View Factor Check Values>,Zone/Enclosure Name,Original Check Value,Calculated Fixed Check Value,Final Check Value,Number of Iterations,Fixed RowSum Convergence,Used RowSum Convergence
Solar View Factor Check Values,BLOCK1:LIVINGROOM,0.000000,6.843612E-004,6.843612E-004,11,6.843612E-004,6.843612E-004
Solar View Factor Check Values,BLOCK1:BATHROOM,5.329071E-015,9.568050E-004,9.568050E-004,9,9.568050E-004,9.568050E-004
Solar View Factor Check Values,BLOCK1:CLOSET,2.664535E-015,6.339894E-004,6.339894E-004,13,6.339894E-004,6.339894E-004
! <Zone Internal Gains Nominal>,Zone Name, Floor Area {m2},# Occupants,Area per Occupant {m2/person},Occupant per Area {person/m2},Interior Lighting {W/m2},Electric Load {W/m2},Gas Load {W/m2},Other Load {W/m2},Hot Water Eq {W/m2},Steam Equipment {W/m2},Sum Loads per Area {W/m2},Outdoor Controlled Baseboard Heat
 Zone Internal Gains Nominal, BLOCK1:LIVINGROOM,23.31,0.4,53.191,1.880E-002,5.000,0.000,0.000,0.000,0.000,0.000,5.000,No
 Zone Internal Gains Nominal, BLOCK1:BATHROOM,4.36,8.2E-002,53.371,1.874E-002,7.500,0.000,0.000,1.670,0.000,0.000,9.170,No
 Zone Internal Gains Nominal, BLOCK1:CLOSET,1.45,2.2E-002,64.500,1.550E-002,5.000,0.000,0.000,1.570,0.000,0.000,6.570,No
! <People Internal Gains Nominal>,Name,Schedule Name,Zone Name,Zone Floor Area {m2},# Zone Occupants,Number of People {},People/Floor Area {person/m2},Floor Area per person {m2/person},Fraction Radiant,Fraction Convected,Sensible Fraction Calculation,Activity level,ASHRAE 55 Warnings,Carbon Dioxide Generation Rate,Minimum Number of People for All Day Types,Maximum Number of People for All Day Types,Minimum Number of People for Weekdays, Maximum Number of People for Weekdays, Minimum Number of People for Weekends/Holidays, Maximum Number of People for Weekends /Holidays,Minimum Number of People for Summer Design Days, Maximum Number of People for Summer Design Days,Minimum Number of People for Winter Design Days, Maximum Number of People for Winter Design Days
 People Internal Gains Nominal, PEOPLE BLOCK1:LIVINGROOM,TM59_LIVING_OCC,BLOCK1:LIVINGROOM,23.31,0.4,0.4,1.880E-002,53.191,0.300,0.700,AutoCalculate,ACTIVITY SCHEDULE 91,No,3.8200E-008,0.0,0.3,0.0,0.3,0.0,0.3,0.0,0.3,0.0,0.0,
 People Internal Gains Nominal, PEOPLE BLOCK1:BATHROOM,DWELL_DOMBATH_OCC,BLOCK1:BATHROOM,4.36,8.2E-002,8.2E-002,1.874E-002,53.371,0.300,0.700,AutoCalculate,ACTIVITY SCHEDULE 104,No,3.8200E-008,0.0,8.2E-002,0.0,8.2E-002,0.0,8.2E-002,0.0,8.2E-002,0.0,0.0,
 People Internal Gains Nominal, PEOPLE BLOCK1:CLOSET,DWELL_DOMCIRCULATION_OCC,BLOCK1:CLOSET,1.45,2.2E-002,2.2E-002,1.550E-002,64.500,0.300,0.700,AutoCalculate,ACTIVITY SCHEDULE 113,No,3.8200E-008,0.0,2.2E-002,0.0,2.2E-002,0.0,2.2E-002,0.0,2.2E-002,0.0,0.0,
! <Lights Internal Gains Nominal>,Name,Schedule Name,Zone Name,Zone Floor Area {m2},# Zone Occupants,Lighting Level {W},Lights/Floor Area {W/m2},Lights per person {W/person},Fraction Return Air,Fraction Radiant,Fraction Short Wave,Fraction Convected,Fraction Replaceable,End-Use, Minimum Lighting Level for All Day Types {W},Maximum Lighting Level for All Day Types {W},Minimum Lighting Level for Weekdays {W}, Maximum Lighting Level for Weekdays {W},Minimum Lighting Level for Weekends/Holidays {W}, Maximum Lighting Level for Weekends /Holidays {W},Minimum Lighting Level for Summer Design Days {W}, Maximum Lighting Level for Summer Design Days {W},Minimum Lighting Level for Winter Design Days {W}, Maximum Lighting Level for Winter Design Days {W}
 Lights Internal Gains Nominal, BLOCK1:LIVINGROOM,TM59_DEFAULT_LIGHT,BLOCK1:LIVINGROOM,23.31,0.4,116.564,5.000,265.957,0.000,0.420,0.180,0.400,1.000,General,0.000,116.564,0.000,116.6,0.000,116.564,0.000,116.564,0.000,0.000
 Lights Internal Gains Nominal, BLOCK1:BATHROOM,DWELL_DOMBATH_LIGHT,BLOCK1:BATHROOM,4.36,8.2E-002,32.696,7.500,400.281,0.000,0.420,0.180,0.400,1.000,General,0.000,32.696,0.000,32.7,0.000,32.696,0.000,32.696,0.000,0.000
 Lights Internal Gains Nominal, BLOCK1:CLOSET,DWELL_DOMCIRCULATION_LIGHT,BLOCK1:CLOSET,1.45,2.2E-002,7.229,5.000,322.500,0.000,0.420,0.180,0.400,1.000,General,0.000,7.229,0.000,7.2,0.000,7.229,0.000,7.229,0.000,0.000
! <OtherEquipment Internal Gains Nominal>,Name,Schedule Name,Zone Name,Zone Floor Area {m2},# Zone Occupants,Equipment Level {W},Equipment/Floor Area {W/m2},Equipment per person {W/person},Fraction Latent,Fraction Radiant,Fraction Lost,Fraction Convected,Minimum Equipment Level for All Day Types {W},Maximum Equipment Level for All Day Types {W},Minimum Equipment Level for Weekdays {W}, Maximum Equipment Level for Weekdays {W},Minimum Equipment Level for Weekends/Holidays {W}, Maximum Equipment Level for Weekends /Holidays {W},Minimum Equipment Level for Summer Design Days {W}, Maximum Equipment Level for Summer Design Days {W},Minimum Equipment Level for Winter Design Days {W}, Maximum Equipment Level for Winter Design Days {W}
 OtherEquipment Internal Gains Nominal, BLOCK1:BATHROOM EQUIPMENT GAIN 1,DWELL_DOMBATH_EQUIP,BLOCK1:BATHROOM,4.36,8.2E-002,7.280,1.670,89.129,0.000,0.200,0.000,0.800,0.000,7.280,0.437,7.280,0.437,0.437,0.437,7.280,0.000,0.000
 OtherEquipment Internal Gains Nominal, BLOCK1:CLOSET EQUIPMENT GAIN 1,DWELL_DOMCIRCULATION_EQUIP,BLOCK1:CLOSET,1.45,2.2E-002,2.270,1.570,101.265,0.000,0.200,0.000,0.800,0.000,2.270,0.145,2.270,0.145,2.270,0.145,2.270,0.000,0.000
! <Construction CTF>,Construction Name,Index,#Layers,#CTFs,Time Step {hours},ThermalConductance {w/m2-K},OuterThermalAbsorptance,InnerThermalAbsorptance,OuterSolarAbsorptance,InnerSolarAbsorptance,Roughness
! <Material CTF Summary>,Material Name,Thickness {m},Conductivity {w/m-K},Density {kg/m3},Specific Heat {J/kg-K},ThermalResistance {m2-K/w}
! <Material:Air>,Material Name,ThermalResistance {m2-K/w}
! <CTF>,Time,Outside,Cross,Inside,Flux (except final one)
 Construction CTF,PROJECT GROUND FLOOR,   3,   4,   9,   0.500,     0.3779    ,   0.900,   0.900,   0.350,   0.780,Rough
 Material CTF Summary,Urea Formaldehyde Foam_O.O869,  0.0869,         0.040,     10.000,     1400.000,   2.172    
 Material CTF Summary,Cast Concrete_O.1,  0.1000,         1.130,   2000.000,     1000.000,  0.8850E-01
 Material CTF Summary,Floor/Roof Screed_O.O7,  0.0700,         0.410,   1200.000,      840.000,  0.1707    
 Material CTF Summary,Timber Flooring_O.O3,  0.0300,         0.140,    650.000,     1200.000,  0.2143    
 CTF,   9,     -0.16550946E-11,      0.78567008E-13,     -0.22232009E-10,      0.51649659E-14
 CTF,   8,      0.32833904E-08,      0.12502082E-09,      0.32062092E-07,     -0.23745884E-10
 CTF,   7,     -0.20084418E-05,      0.44800890E-07,     -0.15207691E-04,      0.28542922E-07
 CTF,   6,      0.24753864E-03,      0.38520150E-05,      0.23317957E-02,     -0.11184433E-04
 CTF,   5,     -0.89720621E-02,      0.83866584E-04,     -0.10982195    ,      0.12032484E-02
 CTF,   4,      0.11316926    ,      0.47983191E-03,       1.6775220    ,     -0.39400907E-01
 CTF,   3,     -0.59729176    ,      0.70859216E-03,      -9.2028469    ,      0.41251669    
 CTF,   2,       1.4689751    ,      0.23080216E-03,       21.773864    ,      -1.5120088    
 CTF,   1,      -1.6442881    ,      0.95209588E-05,      -22.673240    ,       2.1336882    
 CTF,   0,      0.66967847    ,      0.31645051E-08,       8.5337230    
 Construction CTF,COPY OF ROOF INS ENTIRELY ABOVE DECK R-4O (7.O) U-O.O25 (O.142),   5,   2,   7,   0.500,     0.1450    ,   0.900,   0.900,   0.700,   0.700,Rough
 Material CTF Summary,Board insulation (Glass fiber board)_O.2483,  0.2483,         0.036,    160.000,      840.000,   6.897    
 Material CTF Summary,Metal deck_O.O1,  0.0100,        45.280,   7824.000,      500.000,  0.2208E-03
 CTF,   7,     -0.39555802E-16,      0.84657257E-14,     -0.29968485    ,      0.76283954E-16
 CTF,   6,      0.15227176E-01,      0.98543462E-08,       4.4885146    ,     -0.13000387E-01
 CTF,   5,     -0.20580907    ,      0.20997562E-05,      -27.461540    ,      0.18099205    
 CTF,   4,       1.0986277    ,      0.36857078E-04,       89.036424    ,      -1.0008210    
 CTF,   3,      -2.9627747    ,      0.12947713E-03,      -165.55322    ,       2.8123560    
 CTF,   2,       4.2628323    ,      0.10797307E-03,       177.04968    ,      -4.2398486    
 CTF,   1,      -3.1118477    ,      0.18030897E-04,      -101.17360    ,       3.2582893    
 CTF,   0,      0.90403898    ,      0.24580686E-06,       23.913728    
 Construction CTF,PROJECT PARTITION,   7,   3,   4,   0.500,      2.857    ,   0.900,   0.900,   0.500,   0.500,Rough
 Material CTF Summary,Gypsum Plasterboard_O.O25,  0.0250,         0.250,    900.000,     1000.000,  0.1000    
 Material CTF Summary,5_RVAL_2,  0.0000,         0.000,      0.000,        0.000,  0.1500    
 Material CTF Summary,Gypsum Plasterboard_O.O25,  0.0250,         0.250,    900.000,     1000.000,  0.1000    
 CTF,   4,      0.10128315E-08,      0.39076106E-09,      0.10128315E-08,     -0.30344216E-16
 CTF,   3,     -0.70755172E-02,      0.55337098E-03,     -0.70755172E-02,      0.99645439E-09
 CTF,   2,      0.79180793    ,      0.20370406    ,      0.79180793    ,     -0.41031005E-02
 CTF,   1,      -9.9538120    ,       1.5982646    ,      -9.9538120    ,      0.17220266    
 CTF,   0,       11.545938    ,      0.57433634    ,       11.545938    
 Construction CTF,PROJECT PARTITION_REV,   8,   3,   4,   0.500,      2.857    ,   0.900,   0.900,   0.500,   0.500,Rough
 Material CTF Summary,Gypsum Plasterboard_O.O25,  0.0250,         0.250,    900.000,     1000.000,  0.1000    
 Material CTF Summary,6_RVAL_2,  0.0000,         0.000,      0.000,        0.000,  0.1500    
 Material CTF Summary,Gypsum Plasterboard_O.O25,  0.0250,         0.250,    900.000,     1000.000,  0.1000    
 CTF,   4,      0.10128315E-08,      0.39076106E-09,      0.10128315E-08,     -0.30344216E-16
 CTF,   3,     -0.70755172E-02,      0.55337098E-03,     -0.70755172E-02,      0.99645439E-09
 CTF,   2,      0.79180793    ,      0.20370406    ,      0.79180793    ,     -0.41031005E-02
 CTF,   1,      -9.9538120    ,       1.5982646    ,      -9.9538120    ,      0.17220266    
 CTF,   0,       11.545938    ,      0.57433634    ,       11.545938    
 Construction CTF,COPY OF WALL MASS R-23.O (4.O5) U-O.O41 (O.23),   9,   3,  12,   0.500,     0.2382    ,   0.900,   0.900,   0.700,   0.700,Rough
 Material CTF Summary,8 in. Concrete at R-O.O625/in (NW 145 lb/ft3 solid concrete)_O.2O32,  0.2032,         2.300,   2321.400,      837.360,  0.8835E-01
 Material CTF Summary,R-23 board Insulation (Glass fiber board)_O.1451,  0.1451,         0.036,    160.000,      840.000,   4.031    
 Material CTF Summary,O.5 in. (12.7 mm) gypsum board_O.O127,  0.0127,         0.160,    640.000,     1150.000,  0.7937E-01
 CTF,  12,      0.46976293E-12,     -0.12420832E-14,      0.45480296E-11,     -0.17916847E-14
 CTF,  11,     -0.86559865E-09,      0.34967246E-14,     -0.36964386E-08,      0.36907633E-11
 CTF,  10,      0.38295418E-06,      0.56573093E-12,      0.11153845E-05,     -0.19086232E-08
 CTF,   9,     -0.58651298E-04,      0.35450484E-09,     -0.10355127E-03,      0.33616684E-06
 CTF,   8,      0.36147694E-02,      0.54183075E-07,      0.39095196E-02,     -0.24452010E-04
 CTF,   7,     -0.10347148    ,      0.25162922E-05,     -0.73473182E-01,      0.81366955E-03
 CTF,   6,       1.5211001    ,      0.39909489E-04,      0.75872953    ,     -0.13925436E-01
 CTF,   5,      -12.223305    ,      0.22825502E-03,      -4.5113345    ,      0.13096431    
 CTF,   4,       55.430770    ,      0.46979993E-03,       15.818752    ,     -0.69492996    
 CTF,   3,      -142.67621    ,      0.32350323E-03,      -32.869530    ,       2.0902610    
 CTF,   2,       204.48790    ,      0.61117538E-04,       39.443409    ,      -3.4844737    
 CTF,   1,      -151.03294    ,      0.18806601E-05,      -25.121856    ,       2.9665826    
 CTF,   0,       44.593726    ,      0.11931483E-08,       6.5526234    
 Construction CTF,PROJECT EXTERNAL DOOR,  11,   1,   5,   0.500,      5.429    ,   0.900,   0.900,   0.500,   0.500,Rough
 Material CTF Summary,Painted Oak_O.O35,  0.0350,         0.190,    700.000,     2390.000,  0.1842    
 CTF,   5,     -0.50192675E-15,      0.48303058E-15,     -0.50190548E-15,     -0.10201428E-20
 CTF,   4,      0.22036103E-07,      0.17143312E-07,      0.22036103E-07,     -0.50831998E-13
 CTF,   3,     -0.13431200E-02,      0.88137393E-03,     -0.13431200E-02,      0.22670063E-06
 CTF,   2,      0.67106919    ,      0.30595575    ,      0.67106919    ,     -0.20679812E-02
 CTF,   1,      -10.438262    ,       2.7323533    ,      -10.438262    ,      0.23681417    
 CTF,   0,       13.922770    ,       1.1150433    ,       13.922770    
! <WindowConstruction>,Construction Name,Index,#Layers,Roughness,Conductance {W/m2-K},Conductance (Before Adjusted) {W/m2-K},Convection Coefficient Adjustment Ratio,SHGC,Solar Transmittance at Normal Incidence,Visible Transmittance at Normal Incidence
! <WindowMaterial:Glazing>, Material Name, Optical Data Type, Spectral Data Set Name, Thickness {m}, Solar Transmittance,Front Solar Reflectance, Back Solar Reflectance, Visible Transmittance, Front Visible Reflectance,Back Visible Reflectance,Infrared Transmittance, Front Thermal Emissivity, Back Thermal Emissivity,Conductivity {W/m-K},Dirt Factor,Solar Diffusing
! <WindowMaterial:Gas>,Material Name,GasType,Thickness {m}
 WindowConstruction,1001,13,5,VerySmooth,1.256,1.256,1.000,0.579,0.458,0.698
 WindowMaterial:Glazing,2,SpectralAverage,,3.00000E-003,0.83700,7.50000E-002,7.50000E-002,0.89800,8.10000E-002,8.10000E-002,0.00000,0.84000,0.84000,0.90000,1.00000,No
 WindowMaterial:Gas,1002,Air,1.300E-002
 WindowMaterial:Glazing,2,SpectralAverage,,3.00000E-003,0.83700,7.50000E-002,7.50000E-002,0.89800,8.10000E-002,8.10000E-002,0.00000,0.84000,0.84000,0.90000,1.00000,No
 WindowMaterial:Gas,1002,Air,1.300E-002
 WindowMaterial:Glazing,41,SpectralAverage,,3.00000E-003,0.63000,0.22000,0.19000,0.85000,7.90000E-002,5.60000E-002,0.00000,0.10000,0.84000,0.90000,1.00000,No
! <Surface View Factor Check Values>,Zone/Enclosure Name,Original Check Value,Calculated Fixed Check Value,Final Check Value,Number of Iterations,Fixed RowSum Convergence,Used RowSum Convergence
Surface View Factor Check Values,BLOCK1:LIVINGROOM,0.000000,6.843612E-004,6.843612E-004,11,6.843612E-004,6.843612E-004
Surface View Factor Check Values,BLOCK1:BATHROOM,5.329071E-015,9.568050E-004,9.568050E-004,9,9.568050E-004,9.568050E-004
Surface View Factor Check Values,BLOCK1:CLOSET,2.664535E-015,6.339894E-004,6.339894E-004,13,6.339894E-004,6.339894E-004
! <Surface Convection Parameters>, Surface Name, Outside Model Assignment, Outside Area [m2], Outside Perimeter [m], Outside Height [m], Inside Model Assignment, Inside Height [m], Inside Perimeter Envelope [m], Inside Hydraulic Diameter [m], Window Wall Ratio, Window Location, Near Radiant {Yes/No}, Has Active HVAC {Yes/No}
Surface Convection Parameters,BLOCK1:LIVINGROOM_PARTITION_2_0_0,0,0.00,0.00,0.00,0,4.37,16.89,3.52,5.12E-002,0,No,No
Surface Convection Parameters,BLOCK1:LIVINGROOM_PARTITION_3_0_0,0,0.00,0.00,0.00,0,4.37,16.89,3.52,5.12E-002,0,No,No
Surface Convection Parameters,BLOCK1:LIVINGROOM_PARTITION_4_0_0,0,0.00,0.00,0.00,0,4.37,16.89,3.52,5.12E-002,0,No,No
Surface Convection Parameters,BLOCK1:LIVINGROOM_WALL_5_0_0,0,20.31,18.04,4.37,0,4.37,16.89,3.52,5.12E-002,4,No,No
Surface Convection Parameters,BLOCK1:LIVINGROOM_WALL_5_0_0_0_0_0_DOOR,0,20.31,18.04,4.37,0,4.37,16.89,3.52,5.12E-002,0,No,No
Surface Convection Parameters,BLOCK1:LIVINGROOM_PARTITION_6_0_0,0,0.00,0.00,0.00,0,4.37,16.89,3.52,5.12E-002,0,No,No
Surface Convection Parameters,BLOCK1:LIVINGROOM_PARTITION_7_0_0,0,0.00,0.00,0.00,0,4.37,16.89,3.52,5.12E-002,0,No,No
Surface Convection Parameters,BLOCK1:LIVINGROOM_WALL_8_0_0,0,37.63,28.28,4.37,0,4.37,16.89,3.52,5.12E-002,3,No,No
Surface Convection Parameters,BLOCK1:LIVINGROOM_WALL_9_0_0,0,20.31,28.12,4.37,0,4.37,16.89,3.52,5.12E-002,4,No,No
Surface Convection Parameters,BLOCK1:LIVINGROOM_WALL_9_0_0_0_0_0_WIN,0,19.89,28.12,4.37,0,4.37,16.89,3.52,5.12E-002,1,No,No
Surface Convection Parameters,BLOCK1:LIVINGROOM_WALL_10_0_0,0,37.63,25.96,4.37,0,4.37,16.89,3.52,5.12E-002,4,No,No
Surface Convection Parameters,BLOCK1:LIVINGROOM_PARTITION_11_0_0,0,0.00,0.00,0.00,0,4.37,16.89,3.52,5.12E-002,0,No,No
Surface Convection Parameters,BLOCK1:LIVINGROOM_GROUNDFLOOR_0_0_0,0,0.00,0.00,0.00,0,4.37,16.89,3.52,5.12E-002,0,No,No
Surface Convection Parameters,BLOCK1:LIVINGROOM_GROUNDFLOOR_0_0_1,0,0.00,0.00,0.00,0,4.37,16.89,3.52,5.12E-002,0,No,No
Surface Convection Parameters,BLOCK1:LIVINGROOM_GROUNDFLOOR_0_0_2,0,0.00,0.00,0.00,0,4.37,16.89,3.52,5.12E-002,0,No,No
Surface Convection Parameters,BLOCK1:LIVINGROOM_GROUNDFLOOR_0_0_3,0,0.00,0.00,0.00,0,4.37,16.89,3.52,5.12E-002,0,No,No
Surface Convection Parameters,BLOCK1:LIVINGROOM_ROOF_1_0_0,0,40.03,26.52,0.00,0,4.37,16.89,3.52,5.12E-002,0,No,No
Surface Convection Parameters,BLOCK1:LIVINGROOM_ROOF_1_0_1,0,40.03,26.52,0.00,0,4.37,16.89,3.52,5.12E-002,0,No,No
Surface Convection Parameters,BLOCK1:LIVINGROOM_ROOF_1_0_2,0,40.03,26.52,0.00,0,4.37,16.89,3.52,5.12E-002,0,No,No
Surface Convection Parameters,BLOCK1:LIVINGROOM_ROOF_1_0_3,0,40.03,26.52,0.00,0,4.37,16.89,3.52,5.12E-002,0,No,No
Surface Convection Parameters,BLOCK1:BATHROOM_PARTITION_6_0_10000,0,0.00,0.00,0.00,0,4.37,4.75,1.64,0.00,0,No,No
Surface Convection Parameters,BLOCK1:BATHROOM_PARTITION_5_0_10001,0,0.00,0.00,0.00,0,4.37,4.75,1.64,0.00,0,No,No
Surface Convection Parameters,BLOCK1:BATHROOM_PARTITION_4_0_10002,0,0.00,0.00,0.00,0,4.37,4.75,1.64,0.00,0,No,No
Surface Convection Parameters,BLOCK1:BATHROOM_PARTITION_7_0_10005,0,0.00,0.00,0.00,0,4.37,4.75,1.64,0.00,0,No,No
Surface Convection Parameters,BLOCK1:BATHROOM_WALL_2_0_0,0,37.63,25.96,4.37,0,4.37,4.75,1.64,0.00,0,No,No
Surface Convection Parameters,BLOCK1:BATHROOM_WALL_3_0_0,0,20.31,18.04,4.37,0,4.37,4.75,1.64,0.00,0,No,No
Surface Convection Parameters,BLOCK1:BATHROOM_GROUNDFLOOR_0_0_0,0,0.00,0.00,0.00,0,4.37,4.75,1.64,0.00,0,No,No
Surface Convection Parameters,BLOCK1:BATHROOM_GROUNDFLOOR_0_0_1,0,0.00,0.00,0.00,0,4.37,4.75,1.64,0.00,0,No,No
Surface Convection Parameters,BLOCK1:BATHROOM_ROOF_1_0_0,0,40.03,26.52,0.00,0,4.37,4.75,1.64,0.00,0,No,No
Surface Convection Parameters,BLOCK1:BATHROOM_ROOF_1_0_1,0,40.03,26.52,0.00,0,4.37,4.75,1.64,0.00,0,No,No
Surface Convection Parameters,BLOCK1:CLOSET_PARTITION_2_0_10003,0,0.00,0.00,0.00,0,4.37,4.88,0.59,0.00,0,No,No
Surface Convection Parameters,BLOCK1:CLOSET_PARTITION_5_0_10004,0,0.00,0.00,0.00,0,4.37,4.88,0.59,0.00,0,No,No
Surface Convection Parameters,BLOCK1:CLOSET_WALL_3_0_0,0,20.31,18.04,4.37,0,4.37,4.88,0.59,0.00,0,No,No
Surface Convection Parameters,BLOCK1:CLOSET_WALL_4_0_0,0,37.63,28.28,4.37,0,4.37,4.88,0.59,0.00,0,No,No
Surface Convection Parameters,BLOCK1:CLOSET_GROUNDFLOOR_0_0_0,0,0.00,0.00,0.00,0,4.37,4.88,0.59,0.00,0,No,No
Surface Convection Parameters,BLOCK1:CLOSET_ROOF_1_0_0,0,40.03,26.52,0.00,0,4.37,4.88,0.59,0.00,0,No,No
! <Building Convection Parameters:North Facade>, Perimeter, Height, Xmin, Xmax, Ymin, Ymax, Zmin, Zmax 
Building Convection Parameters:North Facade, 18.04,4.37,-4.61,3.45E-002,0.00,0.11,0.00,4.37
! <Building Convection Parameters:Northeast Facade>, Perimeter, Height, Xmin, Xmax, Ymin, Ymax, Zmin, Zmax 
Building Convection Parameters:Northeast Facade, 0.00,0.00,0.00,0.00,0.00,0.00,0.00,0.00
! <Building Convection Parameters:East Facade>, Perimeter, Height, Xmin, Xmax, Ymin, Ymax, Zmin, Zmax 
Building Convection Parameters:East Facade, 25.96,4.37,0.00,3.45E-002,-8.50,0.11,0.00,4.37
! <Building Convection Parameters:Southeast Facade>, Perimeter, Height, Xmin, Xmax, Ymin, Ymax, Zmin, Zmax 
Building Convection Parameters:Southeast Facade, 0.00,0.00,0.00,0.00,0.00,0.00,0.00,0.00
! <Building Convection Parameters:South Facade>, Perimeter, Height, Xmin, Xmax, Ymin, Ymax, Zmin, Zmax 
Building Convection Parameters:South Facade, 28.12,4.37,-4.61,3.45E-002,-8.50,0.00,0.00,4.37
! <Building Convection Parameters:Southwest Facade>, Perimeter, Height, Xmin, Xmax, Ymin, Ymax, Zmin, Zmax 
Building Convection Parameters:Southwest Facade, 0.00,0.00,0.00,0.00,0.00,0.00,0.00,0.00
! <Building Convection Parameters:West Facade>, Perimeter, Height, Xmin, Xmax, Ymin, Ymax, Zmin, Zmax 
Building Convection Parameters:West Facade, 28.28,4.37,-4.61,0.00,-8.50,0.11,0.00,4.37
! <Building Convection Parameters:Northwest Facade>, Perimeter, Height, Xmin, Xmax, Ymin, Ymax, Zmin, Zmax 
Building Convection Parameters:Northwest Facade, 0.00,0.00,0.00,0.00,0.00,0.00,0.00,0.00
! <Building Convection Parameters:Roof>, Area [m2], Perimeter [m], Height [m], Tilt [deg], Azimuth [deg]
Building Convection Parameters:Roof,40.03,26.52,0.00,0.00,180.00! <FenestrationAssembly>,Construction Name,Frame and Divider Name,NFRC Product Type,Assembly U-Factor {W/m2-K},Assembly SHGC,Assembly Visible Transmittance
FenestrationAssembly,1001,1,CurtainWall,1.492,0.538,0.630
! <ZoneInfiltration Airflow Stats Nominal>,Name,Schedule Name,Zone Name, Zone Floor Area {m2}, # Zone Occupants,Design Volume Flow Rate {m3/s},Volume Flow Rate/Floor Area {m3/s-m2},Volume Flow Rate/Exterior Surface Area {m3/s-m2},ACH - Air Changes per Hour,Equation A - Constant Term Coefficient {},Equation B - Temperature Term Coefficient {1/C},Equation C - Velocity Term Coefficient {s/m}, Equation D - Velocity Squared Term Coefficient {s2/m2}
 ZoneInfiltration Airflow Stats Nominal, BLOCK1:LIVINGROOM INFILTRATION,ON 24/7,BLOCK1:LIVINGROOM,23.31,0.4,1.981E-002,8.495E-004,1.871E-004,0.700,1.000,0.000,0.000,0.000
 ZoneInfiltration Airflow Stats Nominal, BLOCK1:BATHROOM INFILTRATION,ON 24/7,BLOCK1:BATHROOM,4.36,8.2E-002,3.703E-003,8.494E-004,1.361E-004,0.700,1.000,0.000,0.000,0.000
 ZoneInfiltration Airflow Stats Nominal, BLOCK1:CLOSET INFILTRATION,ON 24/7,BLOCK1:CLOSET,1.45,2.2E-002,1.228E-003,8.494E-004,4.950E-005,0.700,1.000,0.000,0.000,0.000
! <AirFlow Model>, Simple
 AirFlow Model, Simple
! <RoomAir Model>, Zone Name, Mixing/Mundt/UCSDDV/UCSDCV/UCSDUFI/UCSDUFE/User Defined
RoomAir Model,BLOCK1:LIVINGROOM,Mixing/Well-Stirred
RoomAir Model,BLOCK1:BATHROOM,Mixing/Well-Stirred
RoomAir Model,BLOCK1:CLOSET,Mixing/Well-Stirred
! <AirflowNetwork Model:Control>, No Multizone or Distribution/Multizone with Distribution/Multizone without Distribution/Multizone with Distribution only during Fan Operation
AirflowNetwork Model:Control,NoMultizoneOrDistribution
! <Zone Volume Capacitance Multiplier>, Sensible Heat Capacity Multiplier, Moisture Capacity Multiplier, Carbon Dioxide Capacity Multiplier, Generic Contaminant Capacity Multiplier
Zone Volume Capacitance Multiplier,   1.000 ,   1.000,   1.000,   1.000
! <Load Timesteps in Zone Design Calculation Averaging Window>, Value
 Load Timesteps in Zone Design Calculation Averaging Window,    2
! <Heating Sizing Factor Information>, Sizing Factor ID, Value
 Heating Sizing Factor Information, Global,   1.2500    
 Heating Sizing Factor Information, Zone BLOCK1:LIVINGROOM,   1.2500    
 Heating Sizing Factor Information, Zone BLOCK1:BATHROOM,   1.2500    
 Heating Sizing Factor Information, Zone BLOCK1:CLOSET,   1.2500    
! <Cooling Sizing Factor Information>, Sizing Factor ID, Value
 Cooling Sizing Factor Information, Global,   1.1500    
 Cooling Sizing Factor Information, Zone BLOCK1:LIVINGROOM,   1.1500    
 Cooling Sizing Factor Information, Zone BLOCK1:BATHROOM,   1.1500    
 Cooling Sizing Factor Information, Zone BLOCK1:CLOSET,   1.1500    
! <Zone Sizing Information>, Zone Name, Load Type, Calc Des Load {W}, User Des Load {W}, Calc Des Air Flow Rate {m3/s}, User Des Air Flow Rate {m3/s}, Design Day Name, Date/Time of Peak, Temperature at Peak {C}, Humidity Ratio at Peak {kgWater/kgDryAir}, Floor Area {m2}, # Occupants, Calc Outdoor Air Flow Rate {m3/s}, Calc DOAS Heat Addition Rate {W}
 Zone Sizing Information, BLOCK1:LIVINGROOM, Cooling, 1579.06965, 1815.93009, 0.12353, 0.14206, SUMMER DESIGN DAY IN UNTITLED (O1-O1:31-12) SEP, 9/15 14:30:00, 30.60000, 1.20539E-002, 23.31270, 0.43828, 4.38279E-003, 0.00000
 Zone Sizing Information, BLOCK1:LIVINGROOM, Heating, 828.21510, 1035.26888, 5.92605E-002, 7.40756E-002, WINTER DESIGN DAY IN UNTITLED (O1-O1:31-12), 1/15 24:00:00, 7.00000, 7.77099E-003, 23.31270, 0.43828, 4.38279E-003, 0.00000
 Zone Sizing Information, BLOCK1:BATHROOM, Cooling, 205.98309, 236.88055, 1.61145E-002, 1.85317E-002, SUMMER DESIGN DAY IN UNTITLED (O1-O1:31-12) SEP, 9/15 17:30:00, 28.96600, 1.20510E-002, 4.35950, 8.16833E-002, 9.80199E-004, 0.00000
 Zone Sizing Information, BLOCK1:BATHROOM, Heating, 44.49421, 55.61776, 2.62246E-003, 3.27808E-003, WINTER DESIGN DAY IN UNTITLED (O1-O1:31-12), 1/15 24:00:00, 7.00000, 7.77099E-003, 4.35950, 8.16833E-002, 9.80199E-004, 0.00000
 Zone Sizing Information, BLOCK1:CLOSET, Cooling, 182.87332, 210.30431, 1.43057E-002, 1.64516E-002, SUMMER DESIGN DAY IN UNTITLED (O1-O1:31-12) SEP, 9/15 17:30:00, 28.96600, 1.20510E-002, 1.44570, 2.24140E-002, 2.24140E-004, 0.00000
 Zone Sizing Information, BLOCK1:CLOSET, Heating, 20.07819, 25.09774, 1.18354E-003, 1.47943E-003, WINTER DESIGN DAY IN UNTITLED (O1-O1:31-12), 1/15 24:00:00, 7.00000, 7.77099E-003, 1.44570, 2.24140E-002, 2.24140E-004, 0.00000
! <Component Sizing Information>, Component Type, Component Name, Input Field Description, Value
 Component Sizing Information, ZoneHVAC:IdealLoadsAirSystem, BLOCK1:LIVINGROOM IDEAL LOADS AIR, Design Size Maximum Heating Air Flow Rate [m3/s], 7.40756E-002
 Component Sizing Information, ZoneHVAC:IdealLoadsAirSystem, BLOCK1:LIVINGROOM IDEAL LOADS AIR, Design Size Maximum Sensible Heating Capacity [W], 1096.45640
 Component Sizing Information, ZoneHVAC:IdealLoadsAirSystem, BLOCK1:LIVINGROOM IDEAL LOADS AIR, Design Size Maximum Cooling Air Flow Rate [m3/s], 0.14206
 Component Sizing Information, ZoneHVAC:IdealLoadsAirSystem, BLOCK1:LIVINGROOM IDEAL LOADS AIR, Design Size Maximum Total Cooling Capacity [W], 2048.84143
 Component Sizing Information, ZoneHVAC:IdealLoadsAirSystem, BLOCK1:BATHROOM IDEAL LOADS AIR, Design Size Maximum Heating Air Flow Rate [m3/s], 3.27808E-003
 Component Sizing Information, ZoneHVAC:IdealLoadsAirSystem, BLOCK1:BATHROOM IDEAL LOADS AIR, Design Size Maximum Sensible Heating Capacity [W], 66.37067
 Component Sizing Information, ZoneHVAC:IdealLoadsAirSystem, BLOCK1:BATHROOM IDEAL LOADS AIR, Design Size Maximum Cooling Air Flow Rate [m3/s], 1.85317E-002
 Component Sizing Information, ZoneHVAC:IdealLoadsAirSystem, BLOCK1:BATHROOM IDEAL LOADS AIR, Design Size Maximum Total Cooling Capacity [W], 301.95765
 Component Sizing Information, ZoneHVAC:IdealLoadsAirSystem, BLOCK1:CLOSET IDEAL LOADS AIR, Design Size Maximum Heating Air Flow Rate [m3/s], 1.47943E-003
 Component Sizing Information, ZoneHVAC:IdealLoadsAirSystem, BLOCK1:CLOSET IDEAL LOADS AIR, Design Size Maximum Sensible Heating Capacity [W], 27.55705
 Component Sizing Information, ZoneHVAC:IdealLoadsAirSystem, BLOCK1:CLOSET IDEAL LOADS AIR, Design Size Maximum Cooling Air Flow Rate [m3/s], 1.64516E-002
 Component Sizing Information, ZoneHVAC:IdealLoadsAirSystem, BLOCK1:CLOSET IDEAL LOADS AIR, Design Size Maximum Total Cooling Capacity [W], 228.87428
! <Zone Surfaces>,Zone Name,# Surfaces
! <Shading Surfaces>,Number of Shading Surfaces,# Surfaces
! <HeatTransfer Surface>,Surface Name,Surface Class,Base Surface,Heat Transfer Algorithm,Construction,Nominal U (w/o film coefs) {W/m2-K},Nominal U (with film coefs) {W/m2-K},Solar Diffusing,Area (Net) {m2},Area (Gross) {m2},Area (Sunlit Calc) {m2},Azimuth {deg},Tilt {deg},~Width {m},~Height {m},Reveal {m},ExtBoundCondition,ExtConvCoeffCalc,IntConvCoeffCalc,SunExposure,WindExposure,ViewFactorToGround,ViewFactorToSky,ViewFactorToGround-IR,ViewFactorToSky-IR,#Sides
! <Shading Surface>,Surface Name,Surface Class,Base Surface,Heat Transfer Algorithm,Transmittance Schedule,Min Schedule Value,Max Schedule Value,Solar Diffusing,Area (Net) {m2},Area (Gross) {m2},Area (Sunlit Calc) {m2},Azimuth {deg},Tilt {deg},~Width {m},~Height {m},Reveal {m},ExtBoundCondition,ExtConvCoeffCalc,IntConvCoeffCalc,SunExposure,WindExposure,ViewFactorToGround,ViewFactorToSky,ViewFactorToGround-IR,ViewFactorToSky-IR,#Sides
! <Frame/Divider Surface>,Surface Name,Surface Class,Base Surface,Heat Transfer Algorithm,Construction,Nominal U (w/o film coefs) {W/m2-K},Nominal U (with film coefs) {W/m2-K},Solar Diffusing,Area (Net) {m2},Area (Gross) {m2},Area (Sunlit Calc) {m2},Azimuth {deg},Tilt {deg},~Width {m},~Height {m},Reveal {m}
Zone Surfaces,BLOCK1:LIVINGROOM,20
HeatTransfer Surface,BLOCK1:LIVINGROOM_PARTITION_2_0_0,Wall,,CTF - ConductionTransferFunction,PROJECT PARTITION,2.857,2.001,,8.54,8.54,8.54,90.00,90.00,1.95,4.37,0.00,BLOCK1:BATHROOM_PARTITION_6_0_10000,Other/Same Surface Int Conv,ASHRAETARP,NoSun,NoWind,0.00,0.50,0.50,0.50,4
HeatTransfer Surface,BLOCK1:LIVINGROOM_PARTITION_3_0_0,Wall,,CTF - ConductionTransferFunction,PROJECT PARTITION,2.857,2.001,,2.46,2.46,2.46,180.00,90.00,0.56,4.37,0.00,BLOCK1:BATHROOM_PARTITION_5_0_10001,Other/Same Surface Int Conv,ASHRAETARP,NoSun,NoWind,0.00,0.50,0.50,0.50,4
HeatTransfer Surface,BLOCK1:LIVINGROOM_PARTITION_4_0_0,Wall,,CTF - ConductionTransferFunction,PROJECT PARTITION,2.857,2.001,,4.22,4.22,4.22,90.00,90.00,0.97,4.37,0.00,BLOCK1:BATHROOM_PARTITION_4_0_10002,Other/Same Surface Int Conv,ASHRAETARP,NoSun,NoWind,0.00,0.50,0.50,0.50,4
HeatTransfer Surface,BLOCK1:LIVINGROOM_WALL_5_0_0,Wall,,CTF - ConductionTransferFunction,COPY OF WALL MASS R-23.O (4.O5) U-O.O41 (O.23),0.238,0.230,,6.57,8.52,6.57,0.00,90.00,1.95,4.37,0.00,ExternalEnvironment,DOE-2,ASHRAETARP,SunExposed,WindExposed,0.50,0.50,0.50,0.50,4
HeatTransfer Surface,BLOCK1:LIVINGROOM_WALL_5_0_0_0_0_0_DOOR,Door,BLOCK1:LIVINGROOM_WALL_5_0_0,CTF - ConductionTransferFunction,PROJECT EXTERNAL DOOR,5.429,5.429,,1.95,1.95,1.95,0.00,90.00,0.92,2.13,0.00,ExternalEnvironment,DOE-2,ASHRAETARP,SunExposed,WindExposed,0.50,0.50,0.50,0.50,4
HeatTransfer Surface,BLOCK1:LIVINGROOM_PARTITION_6_0_0,Wall,,CTF - ConductionTransferFunction,PROJECT PARTITION,2.857,2.001,,17.53,17.53,17.53,270.00,90.00,4.01,4.37,0.00,BLOCK1:CLOSET_PARTITION_2_0_10003,Other/Same Surface Int Conv,ASHRAETARP,NoSun,NoWind,0.00,0.50,0.50,0.50,4
HeatTransfer Surface,BLOCK1:LIVINGROOM_PARTITION_7_0_0,Wall,,CTF - ConductionTransferFunction,PROJECT PARTITION,2.857,2.001,,3.79,3.79,3.79,0.00,90.00,0.87,4.37,0.00,BLOCK1:CLOSET_PARTITION_5_0_10004,Other/Same Surface Int Conv,ASHRAETARP,NoSun,NoWind,0.00,0.50,0.50,0.50,4
HeatTransfer Surface,BLOCK1:LIVINGROOM_WALL_8_0_0,Wall,,CTF - ConductionTransferFunction,COPY OF WALL MASS R-23.O (4.O5) U-O.O41 (O.23),0.238,0.230,,20.10,20.10,20.10,270.00,90.00,4.60,4.37,0.00,ExternalEnvironment,DOE-2,ASHRAETARP,SunExposed,WindExposed,0.50,0.50,0.50,0.50,4
HeatTransfer Surface,BLOCK1:LIVINGROOM_WALL_9_0_0,Wall,,CTF - ConductionTransferFunction,COPY OF WALL MASS R-23.O (4.O5) U-O.O41 (O.23),0.238,0.230,,16.20,20.31,16.53,180.00,90.00,4.65,4.37,0.00,ExternalEnvironment,DOE-2,ASHRAETARP,SunExposed,WindExposed,0.50,0.50,0.50,0.50,4
HeatTransfer Surface,BLOCK1:LIVINGROOM_WALL_9_0_0_0_0_0_WIN,Window,BLOCK1:LIVINGROOM_WALL_9_0_0,Window5 Detailed Fenestration,1001,N/A,1.256,No,3.70,3.78,3.78,180.00,90.00,2.66,1.42,0.00,ExternalEnvironment,DOE-2,ASHRAETARP,SunExposed,WindExposed,0.50,0.50,0.50,0.50,4
Frame/Divider Surface,1,Frame,BLOCK1:LIVINGROOM_WALL_9_0_0_0_0_0_WIN,Window5 Detailed Fenestration,,N/A,N/A,,0.33,0.33,*,N/A,N/A,4.00E-002,N/A
Frame/Divider Surface,1,Divider:DividedLite,BLOCK1:LIVINGROOM_WALL_9_0_0_0_0_0_WIN,,,N/A,N/A,,8.12E-002,8.12E-002,*,N/A,N/A,2.00E-002,N/A
HeatTransfer Surface,BLOCK1:LIVINGROOM_WALL_10_0_0,Wall,,CTF - ConductionTransferFunction,COPY OF WALL MASS R-23.O (4.O5) U-O.O41 (O.23),0.238,0.230,,24.87,24.87,24.87,90.00,90.00,5.69,4.37,0.00,ExternalEnvironment,DOE-2,ASHRAETARP,SunExposed,WindExposed,0.50,0.50,0.50,0.50,4
HeatTransfer Surface,BLOCK1:LIVINGROOM_PARTITION_11_0_0,Wall,,CTF - ConductionTransferFunction,PROJECT PARTITION,2.857,2.001,,10.46,10.46,10.46,0.00,90.00,2.40,4.37,0.00,BLOCK1:BATHROOM_PARTITION_7_0_10005,Other/Same Surface Int Conv,ASHRAETARP,NoSun,NoWind,0.00,0.50,0.50,0.50,4
HeatTransfer Surface,BLOCK1:LIVINGROOM_GROUNDFLOOR_0_0_0,Floor,,CTF - ConductionTransferFunction,PROJECT GROUND FLOOR,0.378,0.346,,13.63,13.63,13.63,0.00,180.00,2.40,5.69,0.00,Ground,N/A-Ground,ASHRAETARP,NoSun,NoWind,1.00,0.00,1.00,0.00,4
HeatTransfer Surface,BLOCK1:LIVINGROOM_GROUNDFLOOR_0_0_1,Floor,,CTF - ConductionTransferFunction,PROJECT GROUND FLOOR,0.378,0.346,,0.55,0.55,0.55,0.00,180.00,0.56,0.97,0.00,Ground,N/A-Ground,ASHRAETARP,NoSun,NoWind,1.00,0.00,1.00,0.00,4
HeatTransfer Surface,BLOCK1:LIVINGROOM_GROUNDFLOOR_0_0_2,Floor,,CTF - ConductionTransferFunction,PROJECT GROUND FLOOR,0.378,0.346,,3.99,3.99,3.99,0.00,180.00,0.87,4.60,0.00,Ground,N/A-Ground,ASHRAETARP,NoSun,NoWind,1.00,0.00,1.00,0.00,4
HeatTransfer Surface,BLOCK1:LIVINGROOM_GROUNDFLOOR_0_0_3,Floor,,CTF - ConductionTransferFunction,PROJECT GROUND FLOOR,0.378,0.346,,11.93,11.93,11.93,0.00,180.00,1.39,8.61,0.00,Ground,N/A-Ground,ASHRAETARP,NoSun,NoWind,1.00,0.00,1.00,0.00,4
HeatTransfer Surface,BLOCK1:LIVINGROOM_ROOF_1_0_0,Roof,,CTF - ConductionTransferFunction,COPY OF ROOF INS ENTIRELY ABOVE DECK R-4O (7.O) U-O.O25 (O.142),0.145,0.141,,2.62,2.62,2.62,180.00,0.00,2.40,1.09,0.00,ExternalEnvironment,DOE-2,ASHRAETARP,SunExposed,WindExposed,0.00,1.00,0.00,1.00,4
HeatTransfer Surface,BLOCK1:LIVINGROOM_ROOF_1_0_1,Roof,,CTF - ConductionTransferFunction,COPY OF ROOF INS ENTIRELY ABOVE DECK R-4O (7.O) U-O.O25 (O.142),0.145,0.141,,4.22,4.22,4.22,180.00,0.00,1.39,3.05,0.00,ExternalEnvironment,DOE-2,ASHRAETARP,SunExposed,WindExposed,0.00,1.00,0.00,1.00,4
HeatTransfer Surface,BLOCK1:LIVINGROOM_ROOF_1_0_2,Roof,,CTF - ConductionTransferFunction,COPY OF ROOF INS ENTIRELY ABOVE DECK R-4O (7.O) U-O.O25 (O.142),0.145,0.141,,1.88,1.88,1.88,180.00,0.00,1.95,0.97,0.00,ExternalEnvironment,DOE-2,ASHRAETARP,SunExposed,WindExposed,0.00,1.00,0.00,1.00,4
HeatTransfer Surface,BLOCK1:LIVINGROOM_ROOF_1_0_3,Roof,,CTF - ConductionTransferFunction,COPY OF ROOF INS ENTIRELY ABOVE DECK R-4O (7.O) U-O.O25 (O.142),0.145,0.141,,21.38,21.38,21.38,180.00,0.00,4.65,4.60,0.00,ExternalEnvironment,DOE-2,ASHRAETARP,SunExposed,WindExposed,0.00,1.00,0.00,1.00,4
Zone Surfaces,BLOCK1:BATHROOM,10
HeatTransfer Surface,BLOCK1:BATHROOM_PARTITION_6_0_10000,Wall,,CTF - ConductionTransferFunction,PROJECT PARTITION_REV,2.857,2.001,,8.54,8.54,8.54,270.00,90.00,1.95,4.37,0.00,BLOCK1:LIVINGROOM_PARTITION_2_0_0,Other/Same Surface Int Conv,ASHRAETARP,NoSun,NoWind,0.00,0.50,0.50,0.50,4
HeatTransfer Surface,BLOCK1:BATHROOM_PARTITION_5_0_10001,Wall,,CTF - ConductionTransferFunction,PROJECT PARTITION_REV,2.857,2.001,,2.46,2.46,2.46,0.00,90.00,0.56,4.37,0.00,BLOCK1:LIVINGROOM_PARTITION_3_0_0,Other/Same Surface Int Conv,ASHRAETARP,NoSun,NoWind,0.00,0.50,0.50,0.50,4
HeatTransfer Surface,BLOCK1:BATHROOM_PARTITION_4_0_10002,Wall,,CTF - ConductionTransferFunction,PROJECT PARTITION_REV,2.857,2.001,,4.22,4.22,4.22,270.00,90.00,0.97,4.37,0.00,BLOCK1:LIVINGROOM_PARTITION_4_0_0,Other/Same Surface Int Conv,ASHRAETARP,NoSun,NoWind,0.00,0.50,0.50,0.50,4
HeatTransfer Surface,BLOCK1:BATHROOM_PARTITION_7_0_10005,Wall,,CTF - ConductionTransferFunction,PROJECT PARTITION_REV,2.857,2.001,,10.46,10.46,10.46,180.00,90.00,2.40,4.37,0.00,BLOCK1:LIVINGROOM_PARTITION_11_0_0,Other/Same Surface Int Conv,ASHRAETARP,NoSun,NoWind,0.00,0.50,0.50,0.50,4
HeatTransfer Surface,BLOCK1:BATHROOM_WALL_2_0_0,Wall,,CTF - ConductionTransferFunction,COPY OF WALL MASS R-23.O (4.O5) U-O.O41 (O.23),0.238,0.230,,12.76,12.76,12.76,90.00,90.00,2.92,4.37,0.00,ExternalEnvironment,DOE-2,ASHRAETARP,SunExposed,WindExposed,0.50,0.50,0.50,0.50,4
HeatTransfer Surface,BLOCK1:BATHROOM_WALL_3_0_0,Wall,,CTF - ConductionTransferFunction,COPY OF WALL MASS R-23.O (4.O5) U-O.O41 (O.23),0.238,0.230,,8.00,8.00,8.00,0.00,90.00,1.83,4.37,0.00,ExternalEnvironment,DOE-2,ASHRAETARP,SunExposed,WindExposed,0.50,0.50,0.50,0.50,4
HeatTransfer Surface,BLOCK1:BATHROOM_GROUNDFLOOR_0_0_0,Floor,,CTF - ConductionTransferFunction,PROJECT GROUND FLOOR,0.378,0.346,,1.10,1.10,1.10,0.00,180.00,0.56,1.95,0.00,Ground,N/A-Ground,ASHRAETARP,NoSun,NoWind,1.00,0.00,1.00,0.00,4
HeatTransfer Surface,BLOCK1:BATHROOM_GROUNDFLOOR_0_0_1,Floor,,CTF - ConductionTransferFunction,PROJECT GROUND FLOOR,0.378,0.346,,5.35,5.35,5.35,0.00,180.00,1.83,2.92,0.00,Ground,N/A-Ground,ASHRAETARP,NoSun,NoWind,1.00,0.00,1.00,0.00,4
HeatTransfer Surface,BLOCK1:BATHROOM_ROOF_1_0_0,Roof,,CTF - ConductionTransferFunction,COPY OF ROOF INS ENTIRELY ABOVE DECK R-4O (7.O) U-O.O25 (O.142),0.145,0.141,,1.77,1.77,1.77,180.00,0.00,1.83,0.97,0.00,ExternalEnvironment,DOE-2,ASHRAETARP,SunExposed,WindExposed,0.00,1.00,0.00,1.00,4
HeatTransfer Surface,BLOCK1:BATHROOM_ROOF_1_0_1,Roof,,CTF - ConductionTransferFunction,COPY OF ROOF INS ENTIRELY ABOVE DECK R-4O (7.O) U-O.O25 (O.142),0.145,0.141,,4.68,4.68,4.68,180.00,0.00,2.40,1.95,0.00,ExternalEnvironment,DOE-2,ASHRAETARP,SunExposed,WindExposed,0.00,1.00,0.00,1.00,4
Zone Surfaces,BLOCK1:CLOSET,6
HeatTransfer Surface,BLOCK1:CLOSET_PARTITION_2_0_10003,Wall,,CTF - ConductionTransferFunction,PROJECT PARTITION_REV,2.857,2.001,,17.53,17.53,17.53,90.00,90.00,4.01,4.37,0.00,BLOCK1:LIVINGROOM_PARTITION_6_0_0,Other/Same Surface Int Conv,ASHRAETARP,NoSun,NoWind,0.00,0.50,0.50,0.50,4
HeatTransfer Surface,BLOCK1:CLOSET_PARTITION_5_0_10004,Wall,,CTF - ConductionTransferFunction,PROJECT PARTITION_REV,2.857,2.001,,3.79,3.79,3.79,180.00,90.00,0.87,4.37,0.00,BLOCK1:LIVINGROOM_PARTITION_7_0_0,Other/Same Surface Int Conv,ASHRAETARP,NoSun,NoWind,0.00,0.50,0.50,0.50,4
HeatTransfer Surface,BLOCK1:CLOSET_WALL_3_0_0,Wall,,CTF - ConductionTransferFunction,COPY OF WALL MASS R-23.O (4.O5) U-O.O41 (O.23),0.238,0.230,,3.79,3.79,3.79,0.00,90.00,0.87,4.37,0.00,ExternalEnvironment,DOE-2,ASHRAETARP,SunExposed,WindExposed,0.50,0.50,0.50,0.50,4
HeatTransfer Surface,BLOCK1:CLOSET_WALL_4_0_0,Wall,,CTF - ConductionTransferFunction,COPY OF WALL MASS R-23.O (4.O5) U-O.O41 (O.23),0.238,0.230,,17.53,17.53,17.53,270.00,90.00,4.01,4.37,0.00,ExternalEnvironment,DOE-2,ASHRAETARP,SunExposed,WindExposed,0.50,0.50,0.50,0.50,4
HeatTransfer Surface,BLOCK1:CLOSET_GROUNDFLOOR_0_0_0,Floor,,CTF - ConductionTransferFunction,PROJECT GROUND FLOOR,0.378,0.346,,3.48,3.48,3.48,0.00,180.00,0.87,4.01,0.00,Ground,N/A-Ground,ASHRAETARP,NoSun,NoWind,1.00,0.00,1.00,0.00,4
HeatTransfer Surface,BLOCK1:CLOSET_ROOF_1_0_0,Roof,,CTF - ConductionTransferFunction,COPY OF ROOF INS ENTIRELY ABOVE DECK R-4O (7.O) U-O.O25 (O.142),0.145,0.141,,3.48,3.48,3.48,180.00,0.00,0.87,4.01,0.00,ExternalEnvironment,DOE-2,ASHRAETARP,SunExposed,WindExposed,0.00,1.00,0.00,1.00,4
! <Environment>,Environment Name,Environment Type, Start Date, End Date, Start DayOfWeek, Duration {#days}, Source:Start DayOfWeek,  Use Daylight Saving, Use Holidays, Apply Weekend Holiday Rule,  Use Rain Values, Use Snow Values, Sky Temperature Model
! <Environment:Special Days>, Special Day Name, Special Day Type, Source, Start Date, Duration {#days}
! <Environment:Daylight Saving>, Daylight Saving Indicator, Source, Start Date, End Date
! <Environment:WarmupDays>, NumberofWarmupDays
Environment,UNTITLED (O1-O1:31-12),WeatherFileRunPeriod,01/01/2017,12/31/2017,Sunday,365,Use RunPeriod Specified Day,No,No,Yes,Yes,Yes,Clark and Allen
Environment:Daylight Saving,Yes,InputFile,04/02,10/29
Environment:WarmupDays,  6
! <Warmup Convergence Information>,Zone Name,Environment Type/Name,Average Warmup Temperature Difference {deltaC},Std Dev Warmup Temperature Difference {deltaC},Max Temperature Pass/Fail Convergence,Min Temperature Pass/Fail Convergence,Average Warmup Load Difference {W},Std Dev Warmup Load Difference {W},Heating Load Pass/Fail Convergence,Cooling Load Pass/Fail Convergence
 Warmup Convergence Information,BLOCK1:LIVINGROOM,RunPeriod: UNTITLED (O1-O1:31-12),0.2015481445,0.5813541455,Pass,Pass,0.2252252364,0.5886446689,Pass,Pass
 Warmup Convergence Information,BLOCK1:BATHROOM,RunPeriod: UNTITLED (O1-O1:31-12),4.4379305230E-002,0.1050111328,Pass,Pass,9.7707604911E-002,0.2396749897,Pass,Pass
 Warmup Convergence Information,BLOCK1:CLOSET,RunPeriod: UNTITLED (O1-O1:31-12),4.1634158626E-002,7.4579295540E-002,Pass,Pass,4.2775424490E-002,9.3230970221E-002,Pass,Pass
! <Program Control Information:Threads/Parallel Sims>, Threading Supported,Maximum Number of Threads, Env Set Threads (OMP_NUM_THREADS), EP Env Set Threads (EP_OMP_NUM_THREADS), IDF Set Threads, Number of Threads Used (Interior Radiant Exchange), Number Nominal Surfaces, Number Parallel Sims
Program Control:Threads/Parallel Sims, No,1, N/A, N/A, N/A, N/A, N/A, N/A
End of Data
